14
b3lypvdz=-303.715941463961 
     N      0.04895300      0.27571200     -0.55526000
     C     -1.26098700      0.86808600     -0.30959600
     C     -2.42322800     -0.12230200     -0.55010600
     O     -2.26158300     -1.17942700     -1.14119100
     C     -1.43317800      2.12180400     -1.17939900
     N     -3.64930600      0.27912200     -0.08929400
     H      0.03280300     -0.10122300     -1.50951300
     H     -1.29579200      1.17183400      0.75521500
     H     -0.59476100      2.81360700     -1.00467400
     H     -1.43832500      1.85014600     -2.24955700
     H     -2.37784100      2.64828600     -0.96563800
     H     -3.75598100      1.07350700      0.52801100
     H      0.13148000     -0.56669600      0.02106600
     H     -4.41675300     -0.38015600     -0.16036500
