9
b3lypvdz=-209.068996378992 
     N    -10.66675300     -0.01118600      0.34600600
     C    -11.94651000     -0.68714800      0.22887500
     C    -13.18174500      0.16173900      0.47144500
     O    -13.14356800      1.33435300      0.76749300
     H    -10.63069100      0.45053100      1.25926500
     H    -12.04850900     -1.15249300     -0.77086300
     H    -10.65046400      0.76830100     -0.31793000
     H    -11.99528900     -1.53955000      0.93638700
     H    -14.16087200     -0.38014800      0.35942200
