12
b3lypvdz=-248.388157175502 
     C      5.93097200      0.76845400     -0.06158000
     C      4.77019900     -0.06837300     -0.58392700
     O      4.92863000     -0.98900300     -1.37482000
     N      3.53384800      0.27855700     -0.11390300
     C      2.34414400     -0.46344200     -0.49717700
     H      5.62342000      1.60487000      0.58606200
     H      3.45164200      1.01899600      0.57032300
     H      2.38194500     -0.68555400     -1.57364000
     H      6.61733400      0.11489700      0.49986200
     H      6.48979500      1.16821800     -0.92139100
     H      1.45243200      0.14220700     -0.27868800
     H      2.26273900     -1.42492700      0.04028000
