14
b3lypvdz=-303.716022505085 
     N    -10.68763400     -0.10088400      0.18191600
     C    -11.96123700     -0.80806100      0.23851700
     C    -13.16799300      0.14433000      0.39725800
     O    -13.03372800      1.30571600      0.75376400
     C    -11.93323600     -1.83087100      1.38396400
     N    -14.39612000     -0.41307300      0.16143000
     H    -10.63914800      0.50152600      1.01087200
     H    -12.08609700     -1.35550500     -0.71559400
     H    -11.06173400     -2.49216700      1.26714300
     H    -11.84424600     -1.31477300      2.35528900
     H    -12.84733400     -2.44364400      1.41604300
     H    -14.49327200     -1.31426900     -0.28763800
     H    -10.72522600      0.57178700     -0.58931800
     H    -15.20399300      0.19969000      0.18425400
