18
b3lypvdz=-326.96124338476 
     C     13.04785900      0.47443900      0.52742200
     C     11.91745000     -0.27222100     -0.18154000
     O     12.10198900     -0.99053000     -1.15662200
     C     13.08961100      1.97137300      0.17329300
     N     10.66435900     -0.05018800      0.32480800
     C      9.47508500     -0.66753000     -0.25375300
     C      9.22026400     -2.09380900      0.24450200
     H     12.95105600      0.34617600      1.62129500
     H     13.95102500      2.46519800      0.65109800
     H     13.18132800      2.10969900     -0.91661400
     H     12.17774500      2.49901600      0.50145200
     H     10.56152500      0.52833400      1.14979100
     H      9.60935900     -0.67484800     -1.34679200
     H     10.06989100     -2.74356200     -0.01825100
     H      9.08569800     -2.11669600      1.33976300
     H      8.31088000     -2.50918300     -0.22137000
     H     13.98057900     -0.01734000      0.21529300
     H      8.61409900     -0.01792800     -0.02327600
