17
b3lypvdz=-342.996582113057 
     C     -5.97972400      0.51864600     -0.03460400
     O     -5.80968200      1.62461700      0.46812900
     N     -7.21493100      0.03273200     -0.35060400
     C     -8.43917200      0.79187600     -0.11062100
     C     -8.76665200      1.78687300     -1.22717800
     N     -3.48486200      0.17091600     -0.16476900
     C     -4.79918700     -0.42790900     -0.31440700
     H     -7.28302000     -0.88322000     -0.77800400
     H     -8.30964500      1.33005700      0.84135400
     H     -7.95569500      2.52508400     -1.32571100
     H     -8.89568600      1.27515100     -2.19562300
     H     -9.70022200      2.32776300     -0.99852900
     H     -3.46708800      0.64551200      0.74319000
     H     -4.90197900     -0.85361800     -1.32933400
     H     -9.26157300      0.06988800      0.02098700
     H     -3.40964200      0.94559000     -0.83063600
     H     -4.88653800     -1.28525900      0.38046100
