11
b3lypvdz=-264.428474496656 
     N      0.04742300      0.25074600     -0.69163000
     C     -1.25525500      0.77406700     -0.31734300
     C     -2.43749700     -0.16648700     -0.60804600
     O     -2.29552700     -1.21240700     -1.22346500
     N     -3.65449500      0.27298300     -0.16591400
     H     -0.01400900     -0.05479200     -1.66748900
     H     -1.25527600      1.03726400      0.75605500
     H     -3.75022900      1.08750700      0.42642100
     H      0.19280600     -0.62770100     -0.18572200
     H     -1.43671100      1.72019100     -0.86053700
     H     -4.45843000     -0.33087100     -0.29533000
