12
b3lypvdz=-248.38251563332 
     C     -5.97179000      0.43219000     -0.03659200
     O     -5.77163900      1.40502300      0.66942500
     N     -7.19866500      0.01968000     -0.46113000
     C     -8.42602200      0.72522100     -0.10217900
     C     -8.73013800      1.91631200     -1.01348300
     H     -7.25056500     -0.80197700     -1.05193400
     H     -8.31554700      1.06935700      0.93789700
     H     -7.91775700      2.65771800     -0.95713500
     H     -8.84010100      1.59932100     -2.06416900
     H     -9.66758400      2.40756800     -0.70356000
     H     -5.15381900     -0.23446700     -0.40622200
     H     -9.25167000     -0.00444600     -0.12911900
