14
b3lypvdz=-361.657561170211 
     C     15.46467600      0.00177500      0.92477100
     O     15.54965800      0.75756700      1.87872100
     N     14.33646300     -0.18056600      0.18495100
     C     13.07808200      0.44619300      0.53172700
     C     11.95007600     -0.31672300     -0.13500700
     O     12.11714200     -1.24694600     -0.89492300
     C     13.01141700      1.93730000      0.14382400
     H     14.30445600     -0.88241000     -0.55031400
     H     12.93323800      0.38161900      1.62743200
     H     13.79743900      2.47926200      0.68744400
     H     13.16860800      2.06537700     -0.93886400
     H     12.03614300      2.37295600      0.41599800
     H     16.31631600     -0.61567300      0.55359000
     H     10.92628700      0.06056900      0.10915200
