14
b3lypvdz=-303.707730104236 
     N      7.24941800      0.14184300     -0.38887400
     C      5.94139900      0.69108100     -0.07337200
     C      4.75118200     -0.16096700     -0.54953400
     O      4.90248500     -1.13327200     -1.28037200
     N      3.52267600      0.25284600     -0.12547000
     C      2.30329100     -0.43558900     -0.51676500
     H      7.25587100     -0.07632900     -1.38979900
     H      5.86132200      0.85428500      1.01685400
     H      3.45797500      1.05577300      0.48813200
     H      2.33069400     -0.66288000     -1.59315200
     H      7.31741200     -0.78243900      0.04692100
     H      5.84872800      1.69109300     -0.53719500
     H      1.43829300      0.20836600     -0.30234700
     H      2.17625300     -1.39091100      0.02157300
