18
b3lypvdz=-326.961106242817 
     C     -4.91435000     -1.83400000      0.45518300
     C     -1.26790500      0.87311500     -0.33345600
     C     -2.40899600     -0.08049200     -0.68972700
     O     -2.26745200     -1.03834800     -1.44030000
     C     -1.37642900      2.23214400     -1.04635100
     N     -3.62074300      0.22667100     -0.13052400
     C     -4.81880700     -0.56440600     -0.39578300
     H     -4.05645000     -2.49279200      0.24904500
     H     -4.92162800     -1.59359800      1.53238400
     H     -5.83985300     -2.38743200      0.22054200
     H     -1.23827300      1.02073300      0.76173600
     H     -0.50680000      2.86823000     -0.81309400
     H     -1.41436800      2.09632900     -2.13980700
     H     -2.28391500      2.78476500     -0.74699300
     H     -3.68849900      1.02325600      0.49097300
     H     -4.81122100     -0.83290800     -1.46422700
     H     -0.33822500      0.36313500     -0.62496700
     H     -5.69198700      0.08479900     -0.21773400
