11
b3lypvdz=-264.428482046536 
     N    -10.66912200     -0.02995500      0.32973200
     C    -11.95519700     -0.69811400      0.22708500
     C    -13.17716700      0.21329400      0.43381300
     O    -13.06487100      1.37263600      0.80265500
     N    -14.38806900     -0.36667400      0.17464400
     H    -10.66658100      0.49786300      1.20777000
     H    -12.03746200     -1.19739800     -0.75541500
     H    -14.47733700     -1.34817900     -0.05372800
     H    -10.63677300      0.70615600     -0.38177200
     H    -12.00596000     -1.50517800      0.98292700
     H    -15.22716200      0.15994900      0.38969000
