14
b3lypvdz=-303.710566540361 
     N     16.42583200     -1.42657000     -0.88510700
     C     16.64824900     -0.80832600      0.42739800
     C     15.46054000      0.04270600      0.89457100
     O     15.57349100      0.85013800      1.80933700
     N     14.30800900     -0.18506300      0.20886700
     C     13.05174900      0.42688000      0.59396600
     H     16.59609000     -0.73400100     -1.61943600
     H     17.11327700     -2.16524200     -1.04474300
     H     16.75896700     -1.61529800      1.17320100
     H     14.33524800     -0.95100400     -0.45911300
     H     12.51878000     -0.14549400      1.37627800
     H     17.54874900     -0.17253800      0.52431800
     H     12.39396900      0.51777600     -0.28418100
     H     13.26015100      1.42743500      0.99844400
