12
b3lypvdz=-248.356841318884 
     N    -14.24857100     -0.19698200      0.22468800
     C    -15.54520000      0.41954600      0.47991300
     C    -16.66656400     -0.57599000      0.76858600
     O    -16.52648200     -1.77694700      0.73414200
     C    -15.95409200      1.33197800     -0.68555700
     H    -14.35541900     -0.83075600     -0.57447900
     H    -15.45795300      1.05045500      1.38855900
     H    -15.17726600      2.09179700     -0.85549100
     H    -16.07181100      0.74750900     -1.61466500
     H    -16.90938400      1.84482600     -0.48621500
     H    -14.03320400     -0.82857600      1.00158000
     H    -17.66235500     -0.11795900      1.02123900
