12
b3lypvdz=-248.356823032009 
     N    -10.66674800     -0.02131700      0.33833300
     C    -11.93724000     -0.72837700      0.24007900
     C    -13.16526000      0.15011000      0.46311800
     O    -13.11164700      1.31933500      0.76863100
     C    -11.97397700     -1.91952200      1.21058500
     H    -10.62012800      0.41526600      1.26468700
     H    -12.03557100     -1.13192100     -0.78862700
     H    -11.12458200     -2.58785800      1.00612200
     H    -11.89413100     -1.57227200      2.25564500
     H    -12.90914200     -2.49496800      1.11447200
     H    -10.68947500      0.77818300     -0.30123000
     H    -14.15469900     -0.36776100      0.32538500
