17
b3lypvdz=-342.998971701219 
     N     16.46314900     -1.28551800     -0.94416600
     C     16.63013500     -0.87941900      0.45408200
     C     15.44391300     -0.05968300      0.98485100
     O     15.53440900      0.60909400      2.00865500
     N     14.31165700     -0.17789000      0.24172800
     C     13.07010600      0.49189600      0.59476600
     C     12.99170800      1.92960200      0.07553400
     H     16.77746200     -0.54244200     -1.57146900
     H     17.05038100     -2.09331500     -1.15379200
     H     16.68610200     -1.78363500      1.08287000
     H     14.39426700     -0.75030200     -0.59476100
     H     12.99362600      0.49353700      1.69356600
     H     13.80867200      2.53075300      0.50324700
     H     13.06917800      1.96357100     -1.02404700
     H     12.03399400      2.39303000      0.36712900
     H     17.54089500     -0.29174500      0.67321900
     H     12.23724900     -0.10993600      0.19708700
