17
b3lypvdz=-342.995881071878 
     N     14.33106300     -0.10899200      0.45049600
     C     13.03857100      0.56845900      0.55650800
     C     11.89421600     -0.25515600     -0.07264900
     O     12.09443500     -1.01060900     -1.01762600
     C     13.11547700      1.93501000     -0.14259700
     N     10.64940400     -0.04336300      0.44777000
     C      9.47652300     -0.74920900     -0.04333200
     H     14.38925600     -0.46920200     -0.50897800
     H     12.82457000      0.73029100      1.62946000
     H     13.94212000      2.52441200      0.28196600
     H     13.30546200      1.79671800     -1.22027000
     H     12.17279500      2.49606200     -0.03359700
     H     10.56656100      0.50434900      1.29539300
     H      9.57770600     -0.89603400     -1.12746600
     H     14.30369300     -0.95592300      1.02529000
     H      8.57397600     -0.15483800      0.16383900
     H      9.36197300     -1.74417400      0.42409200
