11
b3lypvdz=-264.428480456532 
     C     -6.02857700      0.48203700     -0.07224300
     O     -5.89291900      1.56489000      0.47711700
     N     -7.25139800     -0.02826600     -0.41032400
     N     -3.52816700      0.16014900     -0.11184100
     C     -4.82789700     -0.42408700     -0.39517200
     H     -7.34994800     -0.87790100     -0.95051200
     H     -3.54327000      0.48762000      0.85861100
     H     -4.87632200     -0.72201000     -1.45848400
     H     -8.07019000      0.55043700     -0.26081800
     H     -3.45059900      1.03058300     -0.64555700
     H     -4.94201300     -1.35775100      0.18612300
