9
b3lypvdz=-209.094069669233 
     C    -13.11900600      0.18826300      0.44787100
     O    -12.92789000      1.32517800      0.83987600
     N    -14.34421800     -0.35412600      0.19876800
     C    -15.57761200      0.36890100      0.46480800
     H    -14.39013500     -1.33659000     -0.04470500
     H    -15.91504000      0.25306400      1.51095900
     H    -12.29252200     -0.53230000      0.22782200
     H    -16.37137500      0.00873100     -0.20617900
     H    -15.40190200      1.43808000      0.28138000
