14
b3lypvdz=-303.716012054367 
     C     -5.94840400      0.44494500     -0.26247800
     O     -5.72532800      1.57702900      0.14085000
     C     -4.97765700     -1.67818500      0.71325000
     N     -7.20798500      0.01775700     -0.58799100
     N     -3.49394900     -0.03697100     -0.33433700
     C     -4.83117800     -0.61573600     -0.38638000
     H     -4.16923000     -2.41898300      0.62186900
     H     -4.90393700     -1.20987300      1.70981800
     H     -5.94719800     -2.19708400      0.66107600
     H     -7.36374700     -0.85648900     -1.07259200
     H     -3.44119700      0.52572000      0.52175400
     H     -4.94575200     -1.11217700     -1.36932200
     H     -7.95226500      0.70687400     -0.59364200
     H     -3.41647300      0.66497400     -1.07587600
