12
b3lypvdz=-248.382448012716 
     C     -9.54521900     -0.34290400     -0.22377200
     O     -9.36912000     -1.35742900     -0.87564900
     N    -10.72562000      0.01331500      0.35433200
     C    -11.92901700     -0.80652600      0.23903800
     C    -11.97696600     -1.95912600      1.24433300
     H    -10.76183300      0.88272600      0.87319800
     H    -11.96266200     -1.20449000     -0.78745800
     H    -11.12509200     -2.63838100      1.08668400
     H    -11.93924600     -1.58694000      2.28196300
     H    -12.90743700     -2.53820500      1.12072200
     H     -8.74177600      0.41282300     -0.03849500
     H    -12.79811200     -0.14226300      0.37060500
