10
b3lypvdz=-193.03666648121 
     C     16.63287700     -0.81824400      0.44272700
     C     15.44518300     -0.04631400      0.96875800
     O     15.51747300      0.98462400      1.59700900
     C     17.98307800     -0.18426900      0.76312000
     H     16.55069500     -1.84681400      0.84707200
     H     18.11729300     -0.07542200      1.85069400
     H     18.05949400      0.82313200      0.32558600
     H     18.80945900     -0.79600500      0.36896700
     H     16.48136100     -0.93916000     -0.64869600
     H     14.44748700     -0.50732700      0.73226300
