10
b3lypvdz=-193.034256764676 
     O    -16.55844000     -1.82700600      0.31439400
     C    -15.89570800      1.48072200     -0.57920000
     C    -15.56544900      0.37379000      0.43489700
     C    -16.67866300     -0.64440800      0.53435900
     H    -15.09096700      2.23168400     -0.61337200
     H    -16.01584400      1.06618100     -1.59336200
     H    -16.83059000      2.00471300     -0.31630000
     H    -15.43251000      0.82259200      1.43775800
     H    -14.63730400     -0.15664600      0.17015600
     H    -17.67752700     -0.21662300      0.82816900
