9
b3lypvdz=-209.108215054523 
     C    -11.95558900     -0.79481200      0.22866200
     C    -13.11765400      0.16203800      0.47327000
     O    -12.95529300      1.28830600      0.91220200
     N    -14.35827400     -0.32238400      0.14427800
     H    -12.25017300     -1.74820500     -0.23725700
     H    -14.51523000     -1.29229500     -0.09352600
     H    -11.21710800     -0.29322400     -0.41586500
     H    -11.46015400     -1.00355000      1.18999200
     H    -15.15922400      0.25062500      0.38654500
