18
b3lypvdz=-326.961217262448 
     C     -6.00514700      0.39422200      0.02207600
     O     -5.85422500      1.38876300      0.72113300
     C     -4.83642400     -1.85139600      0.38590400
     N     -7.24006000      0.00287600     -0.42366800
     C     -8.45177500      0.75092400     -0.10466400
     C     -8.70827300      1.93184300     -1.04484500
     C     -4.84879500     -0.51984900     -0.38461400
     H     -3.95729500     -2.45656400      0.11000900
     H     -4.79705500     -1.67200900      1.47302600
     H     -5.73656500     -2.45590500      0.17994800
     H     -7.31277300     -0.81485700     -1.01681200
     H     -8.34822400      1.11467300      0.92929000
     H     -7.87406700      2.64896400     -0.98953100
     H     -8.81253200      1.59666900     -2.09105400
     H     -9.63525400      2.45802300     -0.76026600
     H     -4.89561800     -0.71169600     -1.47235500
     H     -9.29898200      0.04528200     -0.13074000
     H     -3.92623500      0.04503500     -0.18643900
