17
b3lypvdz=-342.99665689097 
     N    -10.62424700     -0.02430500      0.31346600
     C    -11.92252000     -0.67460100      0.28831900
     C    -13.12342100      0.26398900      0.49899800
     O    -12.97473900      1.42113100      0.87783800
     N    -14.35092600     -0.28946500      0.27652900
     C    -15.59158900      0.45951900      0.45296400
     C    -15.98264500      1.29053400     -0.77193600
     H    -10.58613300      0.54893400      1.16187700
     H    -12.04598900     -1.22361000     -0.66334200
     H    -14.39955400     -1.23782600     -0.07651100
     H    -15.45234200      1.11969000      1.32298700
     H    -15.20137000      2.03436200     -0.99113300
     H    -16.12054900      0.65278200     -1.66130600
     H    -16.92819700      1.82727300     -0.58679900
     H    -10.60111200      0.67199400     -0.43758500
     H    -11.95611500     -1.44208400      1.08574600
     H    -16.38705100     -0.26181600      0.70208800
