17
b3lypvdz=-342.996006971588 
     N    -10.70490100     -0.09611300      0.17128500
     C    -11.96567100     -0.83134000      0.26450600
     C    -13.16817900      0.10159600      0.52684300
     O    -13.03589800      1.16213600      1.12733600
     C    -11.87505800     -1.86561300      1.39759200
     N    -14.38150800     -0.35730900      0.09910300
     C    -15.60778000      0.40550300      0.27220200
     H    -10.70998500      0.58214100      0.94220100
     H    -12.12122000     -1.36493000     -0.69175000
     H    -11.00709700     -2.52214300      1.23439000
     H    -11.74578500     -1.35420900      2.36631400
     H    -12.78875300     -2.47991700      1.45798600
     H    -14.40626300     -1.19592300     -0.46821500
     H    -15.51241700      1.01850800      1.17861000
     H    -10.72939600      0.48859400     -0.66894800
     H    -16.46189300     -0.28001300      0.38244000
     H    -15.80299700      1.08323200     -0.57959400
