8
b3lypvdz=-79.7640932981 
     C     16.63540500     -0.89501700      0.48379100
     C     17.95829500     -0.15968300      0.72440900
     H     16.54861100     -1.78447300      1.12999600
     H     18.04338600      0.17876100      1.77074600
     H     18.04508900      0.72977300      0.07820400
     H     18.82275600     -0.81188700      0.51315800
     H     16.55031400     -1.23346100     -0.56254600
     H     15.77094400     -0.24281300      0.69504200
