17
b3lypvdz=-342.995798886693 
     N     -7.13422500      0.18364600     -0.24969000
     C     -8.46536000      0.76067600     -0.10695400
     C     -9.58258500     -0.30354100     -0.15692300
     O     -9.41161500     -1.38905000     -0.70413000
     C     -8.69137400      1.80662300     -1.21104200
     N    -10.77989900      0.06772600      0.38597900
     C    -11.92481800     -0.82075800      0.41112900
     H     -7.16214900     -0.43726200     -1.06568600
     H     -8.51522800      1.27261400      0.87211000
     H     -7.87855600      2.54722500     -1.18463700
     H     -8.68016300      1.31785400     -2.19976300
     H     -9.65814700      2.32155800     -1.10276300
     H    -10.83167600      0.94076300      0.89612200
     H    -11.93334100     -1.41713200     -0.51202400
     H     -6.96963200     -0.46140600      0.52794900
     H    -12.85132800     -0.23262500      0.47437300
     H    -11.89570500     -1.52541200      1.26165000
