14
b3lypvdz=-361.657613051857 
     C     -5.97316300      0.42351000     -0.04428800
     O     -5.86328300      1.52920600      0.43605200
     C     -4.92406600     -1.81221900      0.39363100
     C     -2.37676900     -0.13793900     -0.62132900
     O     -2.20811900     -1.13239200     -1.30738100
     N     -3.57061400      0.23336200     -0.08420500
     C     -4.79867100     -0.47911000     -0.37002000
     H     -4.09675200     -2.47036300      0.09255800
     H     -4.87306000     -1.64435100      1.48145100
     H     -5.87525400     -2.31710700      0.15522100
     H     -3.66891800      1.12482600      0.39523700
     H     -4.84146700     -0.70978100     -1.45259900
     H     -6.97717300     -0.02190400     -0.25899100
     H     -1.55779000      0.57506200     -0.36163700
