17
b3lypvdz=-342.996537494536 
     C     -4.99827500     -1.75606300      0.57204200
     N      0.09582400      0.30112100     -0.62234600
     C     -1.23613000      0.80116600     -0.33257600
     C     -2.37829800     -0.18791400     -0.62354500
     O     -2.18243900     -1.22980000     -1.24109200
     N     -3.61281600      0.18527400     -0.17921000
     C     -4.80859300     -0.61553400     -0.43030000
     H     -4.14402800     -2.44887200      0.52105000
     H     -5.08171100     -1.37431400      1.60340400
     H     -5.91657900     -2.32165900      0.34027500
     H      0.07620300     -0.08583300     -1.57095800
     H     -1.29155100      1.12835200      0.72166100
     H     -3.70689300      1.06320500      0.31748100
     H     -4.72583100     -1.02520700     -1.44928300
     H      0.25886700     -0.52594000     -0.04065900
     H     -1.41905800      1.70950000     -0.93831500
     H     -5.67539200      0.06521900     -0.41182800
