10
b3lypvdz=-193.034190258359 
     C    -11.92607500     -0.76918700      0.24116000
     C    -13.08926700      0.16930500      0.47052500
     O    -12.99160000      1.31931200      0.82897100
     C    -11.96487800     -1.96004900      1.21396500
     H    -11.99159600     -1.14256200     -0.79829700
     H    -11.13381900     -2.65389500      1.01222200
     H    -11.87820000     -1.62034900      2.25913500
     H    -12.90593700     -2.52880300      1.11984000
     H    -10.99354000     -0.19243600      0.34589700
     H    -14.10218800     -0.29173700      0.29788300
