12
b3lypvdz=-248.356828513497 
     N     14.37688500     -0.14905300      0.25574900
     C     13.07224400      0.43112300      0.54296800
     C     11.89760300     -0.33207400     -0.06104400
     O     12.01729100     -1.30462300     -0.77154300
     C     13.01834200      1.89994800      0.08934800
     H     14.47897700     -0.21303300     -0.76211900
     H     12.91320500      0.41742100      1.64046300
     H     13.82673000      2.46422300      0.57633100
     H     13.15807600      1.97251700     -1.00322600
     H     12.05439500      2.37074600      0.34096600
     H     14.37267700     -1.12711300      0.55815200
     H     10.88217700      0.07281900      0.20205500
