18
b3lypvdz=-326.961112131355 
     C     -8.44950800      0.69935800     -0.11690200
     C     -9.57194700     -0.32714600     -0.26676600
     O     -9.43586000     -1.37651200     -0.88424000
     C     -8.66722100      1.95535500     -0.97660900
     N    -10.75990600      0.02027300      0.32046100
     C    -11.94255300     -0.83090200      0.23888900
     C    -11.95649900     -1.95961300      1.27285300
     H     -8.34718200      0.97961000      0.94762100
     H     -7.80552000      2.63829000     -0.89790200
     H     -8.79020800      1.68542300     -2.03844100
     H     -9.56684800      2.51587300     -0.66926900
     H    -10.81660400      0.88645500      0.84130400
     H    -11.97722900     -1.25608000     -0.77648400
     H    -11.08865300     -2.62140900      1.12712000
     H    -11.92124500     -1.55998700      2.30098700
     H    -12.87315900     -2.56547600      1.17185400
     H     -7.52106400      0.19116200     -0.41463600
     H    -12.82719300     -0.18497400      0.36425800
