17
b3lypvdz=-342.995633859693 
     N      0.05939600      0.32574600     -0.49541100
     C     -1.26152200      0.92093600     -0.32898000
     C     -2.40721100     -0.09568900     -0.53921000
     O     -2.22467600     -1.16432000     -1.11246400
     C     -1.41580900      2.10822000     -1.29171700
     N     -3.63430900      0.28978600     -0.08059100
     C     -4.80295500     -0.56756300     -0.18423200
     H      0.06376700     -0.14302300     -1.40804000
     H     -1.33141100      1.30065600      0.70882200
     H     -0.58450200      2.81417100     -1.14381000
     H     -1.38712900      1.75757500     -2.33804700
     H     -2.36868500      2.64201100     -1.14550700
     H     -3.71004200      1.15267000      0.44361700
     H     -4.75604500     -1.11936300     -1.13375300
     H      0.14654300     -0.45462200      0.16181500
     H     -5.71521000      0.04651500     -0.16401000
     H     -4.85839800     -1.31010700      0.63301900
