15
b3lypvdz=-287.672550041818 
     C     -8.45553200      0.71300300     -0.09350900
     C     -9.57288200     -0.31998200     -0.22878900
     O     -9.42493700     -1.38800700     -0.80923800
     C     -8.65866600      1.93932300     -0.99614200
     N    -10.77457900      0.05303700      0.31382600
     C    -11.93564000     -0.81795200      0.27382600
     H     -8.37159800      1.02871600      0.96213100
     H     -7.80369300      2.62993500     -0.91616100
     H     -8.75206400      1.63617800     -2.05166900
     H     -9.56917800      2.50243200     -0.72965600
     H    -10.82985300      0.91479900      0.84160900
     H    -11.93543900     -1.36808300     -0.67754000
     H     -7.52358500      0.19356000     -0.35880400
     H    -12.85236000     -0.21472600      0.34814900
     H    -11.93279400     -1.56083200      1.09246600
