11
b3lypvdz=-268.266070496322 
     C    -15.57441600      0.38016100      0.42798700
     C    -16.67470000     -0.65328500      0.53128200
     O    -16.56839900     -1.83397500      0.29160600
     C    -15.88770600      1.48738300     -0.58965400
     O    -17.84930200     -0.09750800      0.93219600
     H    -15.43485900      0.82498100      1.42844400
     H    -15.05471100      2.20580100     -0.64490400
     H    -16.03896500      1.06765000     -1.59746600
     H    -16.79927500      2.03706000     -0.30951200
     H    -18.49113100     -0.83168500      0.95649300
     H    -14.65303500     -0.15718300      0.16312800
