15
b3lypvdz=-287.674474013759 
     C     16.65456600     -0.83187200      0.46925800
     C     15.47291900      0.06153600      0.84707400
     O     15.57351900      0.99186900      1.63784300
     C     17.99615100     -0.12768300      0.65909700
     N     14.28778100     -0.24879100      0.23568700
     C     13.05160200      0.41592600      0.60282000
     H     16.60360200     -1.72272200      1.12344000
     H     18.06848400      0.27269300      1.68032800
     H     18.10041800      0.72305800     -0.03302400
     H     18.83299500     -0.82089900      0.48273600
     H     14.23497700     -1.09905800     -0.31178500
     H     12.65959400      0.07549400      1.57861300
     H     16.53451700     -1.20486200     -0.56276400
     H     12.29182500      0.22673500     -0.16966000
     H     13.22974900      1.49837400      0.68013700
