14
b3lypvdz=-361.65758341165 
     C    -13.11592500      0.19337400      0.44040100
     O    -12.93640500      1.32382600      0.86172500
     N    -14.33677000     -0.34125200      0.16582400
     C    -15.56847500      0.36446100      0.45498400
     C    -16.70303400     -0.64016000      0.52260900
     O    -16.57327900     -1.82198500      0.29637700
     C    -15.89453100      1.46604900     -0.57100200
     H    -14.42580900     -1.32030600     -0.09387400
     H    -15.48367200      0.84391500      1.44992800
     H    -15.08836900      2.21360000     -0.56274000
     H    -15.97805400      1.04226000     -1.58470100
     H    -16.84086300      1.97452500     -0.32103300
     H    -12.28488500     -0.52185600      0.22778900
     H    -17.70122700     -0.20334900      0.77831300
