15
b3lypvdz=-287.672656362034 
     C     13.01091300      0.50305400      0.64873800
     C     11.90968300     -0.32098600     -0.01715100
     O     12.13722200     -1.16863300     -0.87056800
     C     13.14767900      1.90664100      0.03644400
     N     10.63570800     -0.03466500      0.40360200
     C      9.47194300     -0.62541400     -0.23165100
     H     12.82002300      0.58088300      1.73379400
     H     13.98393800      2.45616100      0.49742900
     H     13.34036700      1.84079000     -1.04668500
     H     12.23433400      2.50939000      0.17916400
     H     10.49510300      0.74695500      1.03246400
     H      9.16860600     -0.10220300     -1.15710500
     H     13.94066700     -0.06688100      0.50569800
     H      8.62304900     -0.62226400      0.46860300
     H      9.71576400     -1.66152900     -0.50507600
