12
b3lypvdz=-248.38241286749 
     C     -4.93161200     -1.82523300      0.42235600
     C     -2.38361000     -0.10670500     -0.65210200
     O     -2.19933500     -1.03320200     -1.42211300
     N     -3.58596100      0.21567600     -0.09998400
     C     -4.80456900     -0.53563000     -0.39189900
     H     -4.09217000     -2.50109400      0.19778400
     H     -4.93189100     -1.61561700      1.50531500
     H     -5.87115000     -2.34635900      0.17227100
     H     -3.62832200      1.01185600      0.52530300
     H     -4.80143200     -0.77265000     -1.46788200
     H     -1.57035000      0.58653000     -0.32249400
     H     -5.65989800      0.13092800     -0.19695500
