9
b3lypvdz=-209.094231554665 
     N    -10.73160200      0.01475700      0.36565600
     C    -11.93999300     -0.78497000      0.25281600
     C     -9.55425200     -0.35115900     -0.21484000
     O     -9.38734800     -1.34984600     -0.89153200
     H    -10.74707400      0.85986300      0.92405900
     H    -11.84948400     -1.41579300     -0.64187700
     H    -12.81950700     -0.13082200      0.15275400
     H    -12.08635800     -1.44342600      1.12798700
     H     -8.74218200      0.38829600     -0.00572200
