13
b3lypvdz=-377.729368937175 
     C     -5.98431000      0.47543400     -0.08623500
     O     -5.82861300      1.53522500      0.50409000
     N     -7.20897400     -0.01160000     -0.42939300
     C     -2.37948700     -0.15939100     -0.60311900
     O     -2.21614200     -1.14541900     -1.30312900
     N     -3.57861800      0.24099100     -0.10749700
     C     -4.80698400     -0.44031300     -0.43083100
     H     -7.31575200     -0.82245700     -1.02520800
     H     -3.68073100      1.10997300      0.41200600
     H     -4.81812300     -0.71957100     -1.49818800
     H     -8.01553000      0.58070000     -0.26716100
     H     -1.55006400      0.52101700     -0.29443600
     H     -4.91577200     -1.38359000      0.13730000
