14
b3lypvdz=-361.663696993934 
     C     -8.40465500      0.68543200     -0.10242600
     C     -9.56602300     -0.27718300     -0.28478900
     O     -9.47505600     -1.30562300     -0.94252200
     N    -10.72676700      0.07455800      0.34896000
     C    -11.92840200     -0.70043000      0.19545900
     C    -13.13912000      0.10019000      0.60515100
     O    -13.08300000      1.23066100      1.03696600
     H     -8.65729000      1.58329400      0.48051600
     H    -10.83278300      0.97206200      0.81127700
     H    -12.04542700     -1.05073300     -0.84697100
     H     -7.57989100      0.15308200      0.39633300
     H     -8.03900400      0.98735100     -1.09527500
     H    -11.92453200     -1.62834800      0.80462400
     H    -14.11505000     -0.43481200      0.49259800
