17
b3lypvdz=-342.995554320393 
     N     10.78046500     -0.16212300      0.14349200
     C      9.46971900     -0.68037900     -0.22948600
     C      8.31909900      0.28875000      0.12814500
     O      8.47022200      1.20134900      0.93346800
     C      9.24651800     -2.04690100      0.43782000
     N      7.12138100      0.04139100     -0.47810500
     C      5.95557900      0.87905300     -0.25067200
     H     10.72771100      0.10118400      1.13376700
     H      9.46410700     -0.82363100     -1.32730100
     H     10.07960400     -2.72120100      0.18679200
     H      9.21352300     -1.93365100      1.53521800
     H      8.30009000     -2.51413000      0.12185700
     H      7.06957200     -0.68268800     -1.18397500
     H      5.90164200      1.14268900      0.81528000
     H     10.91590900      0.73884500     -0.32388400
     H      5.04756300      0.32831200     -0.53642900
     H      5.99329600      1.82193100     -0.82498700
