17
b3lypvdz=-342.996641562527 
     N     -7.10161600      0.14165800     -0.46465200
     C     -8.42896200      0.63768800     -0.15013900
     C     -9.54212200     -0.42210300     -0.21332600
     O     -9.34051400     -1.53455600     -0.69110900
     N    -10.76169600     -0.02852200      0.25660500
     C    -11.92707500     -0.90657100      0.23507300
     C    -12.00542400     -1.83819500      1.44585400
     H     -7.17086400     -0.38606600     -1.33984600
     H     -8.42590600      1.11136600      0.84802600
     H    -10.85233000      0.89543600      0.66187400
     H    -11.87015600     -1.50175600     -0.68897500
     H    -11.12081700     -2.49272500      1.47677500
     H    -12.05524100     -1.26913200      2.38871800
     H    -12.90358900     -2.47457200      1.38251300
     H     -6.85798400     -0.57863500      0.22081200
     H     -8.69480000      1.44498300     -0.85893400
     H    -12.82550300     -0.27159800      0.17193100
