12
b3lypvdz=-248.392708789383 
     C     -5.96665300      0.44357500     -0.06582300
     O     -5.80168100      1.49439100      0.53403000
     C     -4.89667300     -1.83268600      0.40223300
     N     -7.21317600      0.02288000     -0.46039800
     C     -4.82722400     -0.51862200     -0.39403700
     H     -4.02561000     -2.47024600      0.17889200
     H     -4.90261500     -1.63309300      1.48646200
     H     -5.80549900     -2.41158800      0.16533700
     H     -7.34412200     -0.75647700     -1.09199300
     H     -4.83504600     -0.73305100     -1.47898300
     H     -7.98463800      0.66683400     -0.32531100
     H     -3.89346300      0.01698300     -0.17001000
