12
b3lypvdz=-248.382494371242 
     C    -13.11419500      0.16997800      0.49141700
     O    -12.91940600      1.23425100      1.05207200
     N    -14.34116500     -0.32067900      0.16062900
     C    -15.57475100      0.40772300      0.44522800
     C    -15.91306500      1.46376300     -0.61002400
     H    -14.38787800     -1.21269700     -0.31758200
     H    -15.45432500      0.88776900      1.42889700
     H    -15.11333400      2.21858500     -0.66553100
     H    -16.03228900      1.00887000     -1.60752700
     H    -16.85444200      1.97707900     -0.35240900
     H    -12.29037300     -0.52566600      0.19521900
     H    -16.38767800     -0.33147600      0.52961300
