15
b3lypvdz=-287.67678314001 
     C     13.06440700      0.45187100      0.56642000
     C     11.92219300     -0.25158000     -0.15583000
     O     12.10482700     -0.94723600     -1.14675800
     N     10.67501400     -0.04472500      0.36815400
     C      9.48153600     -0.63712300     -0.22777700
     C      9.23901400     -2.08519400      0.20753100
     H     12.75207100      0.96318300      1.49130100
     H     10.57385200      0.53178600      1.19342600
     H      9.59515400     -0.59180700     -1.32270700
     H     10.08463500     -2.72302500     -0.09389500
     H      9.12388500     -2.15671800      1.30300700
     H      8.32302700     -2.48347600     -0.26112900
     H     13.83956900     -0.28885100      0.81346400
     H     13.51160100      1.19317600     -0.11479200
     H      8.62221500     -0.00428100      0.04978500
