10
b3lypvdz=-193.034311981486 
     O     12.09908200     -1.32798400     -0.79712400
     C     13.01574300      1.95042500      0.14550100
     C     13.09373000      0.45783100      0.49859700
     C     11.96507900     -0.33569800     -0.12054100
     H     13.79111400      2.51958200      0.68056700
     H     13.16027000      2.11380900     -0.93490900
     H     12.03721200      2.37789900      0.42383700
     H     13.00487100      0.33821000      1.59625200
     H     14.04812300      0.00727800      0.18375100
     H     10.94087600      0.07784800      0.09896900
