5
b3lypvdz=-189.683639730928 
     O    -16.53697200     -1.82299500      0.26062500
     O    -17.84865800     -0.09979800      0.92246800
     C    -16.68798500     -0.66037200      0.52926900
     H    -18.50861200     -0.82077200      0.93940600
     H    -15.89937400      0.12023700      0.49373200
