14
b3lypvdz=-361.663697586735 
     C     -5.97132300      0.38700100     -0.02719100
     O     -5.85066200      1.40209800      0.64596000
     N     -7.19141400     -0.04225700     -0.47603700
     C     -8.40804100      0.61730300     -0.08442900
     C     -9.59695000     -0.29233900     -0.26894800
     O     -9.52193500     -1.41330600     -0.72215500
     C     -4.79095100     -0.48785200     -0.41477000
     H     -7.30275800     -0.94257000     -0.93191600
     H     -8.35315300      0.95830600      0.96603800
     H     -5.04366200     -1.27531800     -1.14032500
     H     -8.60696600      1.53984400     -0.66952000
     H    -10.57794400      0.15152500      0.03373400
     H     -3.99981800      0.15324000     -0.83095000
     H     -4.38222200     -0.95567600      0.49510700
