13
b3lypvdz=-377.729336092033 
     C     -9.53527300     -0.38266200     -0.16829300
     O     -9.36994800     -1.44322300     -0.74854800
     N    -10.71968200      0.03536400      0.34826100
     C    -11.93613200     -0.72095200      0.18565700
     C    -13.13063600      0.20457200      0.43024800
     O    -12.99087000      1.34051900      0.86130700
     N    -14.34902900     -0.35710000      0.19508900
     H    -10.82738400      0.96068600      0.75715300
     H    -11.97240000     -1.16512100     -0.82342200
     H    -14.44638400     -1.24208400     -0.28545400
     H     -8.71929600      0.36065100     -0.00018600
     H    -11.99536500     -1.56533700      0.89929200
     H    -15.16760000      0.23258800      0.29519400
