14
b3lypvdz=-303.707714583708 
     N     -7.11371900      0.07121600     -0.42789400
     C     -8.41708200      0.61877400     -0.08848700
     C     -9.57953600     -0.38571500     -0.17973700
     O     -9.43972400     -1.49385100     -0.68482400
     N    -10.77575100      0.04957300      0.31008800
     C    -11.96981800     -0.77865800      0.26031500
     H     -7.20813300     -0.39994600     -1.33288700
     H     -8.38402300      1.04942800      0.92858800
     H    -10.83076600      0.96761300      0.73311400
     H    -12.08087900     -1.22116800     -0.74121000
     H     -6.91966500     -0.70280200      0.21408200
     H     -8.64300200      1.46038700     -0.76987200
     H    -12.84995000     -0.15863600      0.48222100
     H    -11.92575200     -1.60801600      0.98770200
