10
b3lypvdz=-135.081091476347 
     C    -15.88408000      1.46993600     -0.57545000
     N    -14.35460900     -0.32441800      0.11899400
     C    -15.57510000      0.40950900      0.47763500
     H    -15.08788000      2.23544800     -0.61434500
     H    -15.95849000      1.01164000     -1.57487400
     H    -16.83182900      1.98801300     -0.35313400
     H    -14.14922000     -1.02305200      0.83724900
     H    -15.54047100      0.89099200      1.48111300
     H    -13.55972400      0.32154400      0.14085800
     H    -16.40329700     -0.32121100      0.51225500
