17
b3lypvdz=-342.996873045302 
     N     14.45401900      0.00834500      0.20714500
     C     13.09644700      0.35390700      0.59423600
     C     11.99143400     -0.36172400     -0.20411400
     O     12.25289500     -1.06942800     -1.16926800
     N     10.71448800     -0.11252300      0.22090600
     C      9.54569900     -0.76746500     -0.35517300
     C      9.02939100     -1.93776200      0.48567700
     H     14.50852400      0.07643500     -0.81384100
     H     12.95679900      0.14143000      1.67035400
     H     10.59400200      0.39654800      1.09022600
     H      9.85422300     -1.11680400     -1.35071000
     H      9.79977000     -2.72004100      0.58253300
     H      8.74278000     -1.61164200      1.50054000
     H      8.13864600     -2.38727600      0.01604500
     H     14.58549800     -0.99263400      0.37912800
     H     12.94864300      1.44438100      0.47605500
     H      8.75014300     -0.01454500     -0.49354000
