14
b3lypvdz=-361.663688656375 
     C    -11.92575700     -0.77354700      0.21702300
     C    -13.11278200      0.13957800      0.48060500
     O    -12.99065800      1.26615800      0.94345900
     N    -14.33757100     -0.38011300      0.15842900
     C    -15.55356800      0.32794000      0.46302400
     C    -16.73098500     -0.61519600      0.49346200
     O    -16.64989700     -1.79974700      0.25502300
     H    -12.18825600     -1.69547400     -0.32368100
     H    -14.44491900     -1.35121700     -0.11719100
     H    -15.47154800      0.85252100      1.43369500
     H    -11.17295100     -0.21573100     -0.36002900
     H    -11.46512600     -1.04345300      1.18055700
     H    -15.78148800      1.12321500     -0.27767000
     H    -17.71119500     -0.13693300      0.74499300
