11
b3lypvdz=-322.368706389777 
     C     -5.98846300      0.41888700     -0.03568200
     O     -5.89619900      1.51426100      0.47106100
     C     -2.37507200     -0.15141000     -0.61631300
     O     -2.22561400     -1.14723700     -1.30188900
     N     -3.56874100      0.25138000     -0.10005700
     C     -4.79869500     -0.43654200     -0.39692700
     H     -3.65325600      1.13259900      0.39941600
     H     -4.85197300     -0.71621100     -1.46586200
     H     -6.98331000     -0.04165100     -0.25878900
     H     -1.54194700      0.53607600     -0.33406500
     H     -4.89653000     -1.39425300      0.15520700
