15
b3lypvdz=-287.676704904931 
     C     -4.88636300     -1.85168400      0.40812600
     C     -1.25563100      0.86602400     -0.31774000
     C     -2.42031800     -0.04164300     -0.69409100
     O     -2.30010800     -0.96441600     -1.48976600
     N     -3.61213900      0.24311800     -0.08565900
     C     -4.82107700     -0.52859000     -0.35959500
     H     -4.04120600     -2.49945000      0.12745300
     H     -4.84640400     -1.68098700      1.49803700
     H     -5.82352700     -2.38772900      0.17774300
     H     -1.50869300      1.61214100      0.45301100
     H     -3.66521900      1.02262100      0.55715300
     H     -4.85948500     -0.72528300     -1.44352600
     H     -0.42341300      0.24544200      0.04792400
     H     -0.90991800      1.39184600     -1.22142700
     H     -5.68419700      0.10679000     -0.10104300
