10
b3lypvdz=-284.296919835983 
     N    -14.33538900     -0.28937800      0.04774300
     C    -15.55645700      0.33984300      0.52041800
     C    -16.67596300     -0.67834300      0.59450600
     O    -16.52832800     -1.87906800      0.63079400
     O    -17.88713200     -0.08230800      0.67543700
     H    -14.24598700     -1.20440400      0.49476100
     H    -15.50852000      0.79592300      1.53573800
     H    -18.53665800     -0.80309300      0.77402600
     H    -13.52406400      0.26048500      0.33041100
     H    -15.87410300      1.15374300     -0.15383400
