12
b3lypvdz=-248.388182751956 
     C     -1.25044200      0.85653300     -0.31301000
     C     -2.40803200     -0.07349900     -0.65349800
     O     -2.26363300     -1.07331900     -1.34451600
     N     -3.62526200      0.28940300     -0.14636500
     C     -4.80822400     -0.52823800     -0.35784600
     H     -1.54794700      1.75210100      0.25510300
     H     -3.69072800      1.10141500      0.45323400
     H     -4.80345900     -0.91144500     -1.38825400
     H     -0.50186800      0.29579500      0.26879700
     H     -0.76666800      1.17232100     -1.24978500
     H     -5.70803300      0.08409800     -0.19866200
     H     -4.84360300     -1.39776500      0.32320200
