12
b3lypvdz=-248.392711604066 
     C    -11.94920000     -0.79002900      0.23300300
     C    -13.10961300      0.17664200      0.45710800
     O    -12.96300400      1.30457900      0.90156500
     C    -11.94774200     -1.96913600      1.21991700
     N    -14.35166400     -0.32925700      0.16071600
     H    -11.98480700     -1.16609700     -0.80643600
     H    -11.06355100     -2.60814600      1.06275300
     H    -11.92448300     -1.60799000      2.26126300
     H    -12.84400700     -2.60172300      1.10657400
     H    -14.47406200     -1.19264000     -0.35179400
     H    -11.02767000     -0.20006400      0.33908500
     H    -15.14019700      0.30426000      0.23104700
