14
b3lypvdz=-361.663652490792 
     C     16.66024900     -0.86209100      0.47380200
     C     15.45727800     -0.04816100      0.91963700
     O     15.48802100      0.70559000      1.88375600
     N     14.32063300     -0.22729400      0.17881900
     C     13.07869900      0.39726700      0.54443700
     C     11.91308500     -0.28854400     -0.12290000
     O     12.02992900     -1.21229300     -0.89824000
     H     16.87908100     -1.62131100      1.24146700
     H     14.27278700     -0.90834200     -0.57245100
     H     12.94262400      0.39598400      1.64197900
     H     16.51970300     -1.36412100     -0.49478700
     H     17.53375900     -0.19631700      0.41756400
     H     13.03228400      1.46946000      0.25775200
     H     10.91026700      0.13217400      0.13806400
