11
b3lypvdz=-322.368662248866 
     C    -13.10961900      0.19380900      0.44716100
     O    -12.94817600      1.31566600      0.89348300
     N    -14.32447000     -0.35218100      0.16261300
     C    -15.55628600      0.33319200      0.45933800
     C    -16.71045500     -0.63845200      0.51492300
     O    -16.60130600     -1.82185800      0.28559100
     H    -14.40432500     -1.32395700     -0.12388600
     H    -15.47989100      0.88093000      1.41707000
     H    -12.27112400     -0.50791400      0.22117600
     H    -15.81005900      1.10553900     -0.29724500
     H    -17.69868800     -0.18027200      0.77077500
