12
b3lypvdz=-397.599125822237 
     C    -13.11207100      0.20020900      0.44782000
     O    -12.95593300      1.31761500      0.90768200
     N    -14.32318200     -0.35097700      0.16118300
     C    -15.55832900      0.33506000      0.45753500
     C    -16.69012500     -0.66676500      0.53487900
     O    -16.58984700     -1.84590500      0.27938300
     O    -17.84488000     -0.07649800      0.90083700
     H    -14.39645900     -1.31456200     -0.15180400
     H    -15.47393600      0.88902000      1.40682100
     H    -18.52290700     -0.77797900      0.90541300
     H    -12.26998300     -0.49457100      0.21302300
     H    -15.82144800      1.08655400     -0.31137200
