32
b3lypvdz=-783.695553784823 
O          -1.37849500      1.84206300     -0.29408600
O          -5.12592500     -0.08010500     -0.17124100
O           0.21861800     -1.34378700     -0.04316700
O           5.26010600     -0.22674200     -1.22093700
O           4.93766800     -0.28359100      1.01049100
N           0.83208500      0.79425200      0.43275000
C          -2.64338100     -0.27129600      0.05763000
C          -1.37915500      0.42177300     -0.53407700
C          -3.87492300      0.51841800     -0.46755500
C          -2.60491300     -0.21483500      1.59411400
C          -2.74508700     -1.72838400     -0.42829300
C          -0.04207100     -0.14312600     -0.01438800
C           2.19672000      0.44777600      0.79343000
C           3.05997300      0.18973000     -0.44599100
C           4.49428300     -0.12758400     -0.10571900
H          -1.36800700      0.22545800     -1.62434400
H          -3.84032300      1.55641500     -0.08549600
H          -3.83313900      0.56318600     -1.57079700
H          -1.80349500     -0.85481900      1.99286300
H          -3.54878600     -0.58386400      2.03105200
H          -2.43594000      0.81422800      1.95000300
H          -3.71926900     -2.14318500     -0.12895000
H          -1.93422300     -2.34189500     -0.01897500
H          -2.68414500     -1.78679400     -1.52937800
H           0.54553700      1.76200900      0.33416300
H          -1.93040700      2.26418300     -0.96586800
H           2.61666500      1.26311800      1.39951000
H           2.17925800     -0.45645900      1.41817500
H          -5.25655200     -0.03600000      0.78735100
H           3.04412700      1.05094200     -1.13562500
H           2.64472200     -0.66399500     -1.00831500
H           6.15467400     -0.45851100     -0.90881000
