17
b3lypvdz=-342.958542305699 
C           1.57179100     -4.04663200     -0.82959400
C           2.85597100     -3.35180900     -1.25851900
C           2.63111200     -1.94518200     -1.83229400
N           2.07317700     -0.99732600     -0.88507900
C           0.81377200     -0.46448300     -0.94526300
N           0.38473700      0.37729000     -0.07845700
O           1.91835000     -5.35185200     -0.38066400
H           1.07630800     -3.46065800     -0.03032600
H           0.86837100     -4.08727200     -1.68995000
H           3.54036700     -3.30406400     -0.39249900
H           3.35857200     -3.97641100     -2.01820000
H           1.94070500     -1.99744900     -2.69190800
H           3.58588400     -1.55879000     -2.23270100
H           2.65344900     -0.66563200     -0.12009500
H           0.24239500     -0.85111100     -1.81289300
H          -0.57299900      0.65395300     -0.31231800
H           1.11363500     -5.77787200     -0.05353900
