13
b3lypvdz=-269.426859088786 
C           1.47327000     -3.98547700     -1.05660900
C           2.81301600     -3.25873400     -1.15037100
C           2.71431500     -1.91385600     -1.85361300
O           3.31300100     -3.03239200      0.16229800
O           1.73080700     -5.18644200     -0.32793600
H           0.75358800     -3.33667600     -0.51878400
H           1.06823400     -4.20285500     -2.06525800
H           3.50188000     -3.91960300     -1.72009500
H           2.05819400     -1.23319200     -1.28761100
H           2.31567900     -2.02409100     -2.87543000
H           3.71033900     -1.44983900     -1.91748400
H           3.20719800     -3.88294700      0.62067600
H           0.88447900     -5.58069700     -0.07608500
