20
b3lypvdz=-328.117527851003 
C           2.57423200     -3.37424200     -1.23886600
C           3.16368500     -1.99366300     -1.48236400
N           2.31550100     -0.97165600     -0.88345700
C           2.88677100      0.37243100     -0.84607400
C           4.10202200      0.59300100      0.07956600
C           3.79638200      0.33510200      1.55827700
O           2.56891700     -3.58085100      0.17463600
H           1.54683000     -3.41404400     -1.65097400
H           3.18889500     -4.13636400     -1.75843500
H           3.22370000     -1.82075700     -2.57352300
H           4.20626200     -2.00459500     -1.09431900
H           2.08107500     -1.27853100      0.06153800
H           2.08430300      1.06926500     -0.54039600
H           3.16276200      0.65254800     -1.87943200
H           4.45336000      1.63300000     -0.05259400
H           4.94017900     -0.05066600     -0.24282900
H           2.96819200      0.97418300      1.91257400
H           4.67187500      0.54482700      2.19504200
H           3.50515300     -0.71475900      1.73580400
H           2.09010400     -4.40102700      0.35722600
