16
b3lypvdz=-308.71194053594 
C           0.36703300     -3.16037800     -0.25631100
C           1.42256700     -3.95414000     -1.03630900
C           2.78516800     -3.26184900     -1.10686900
C          -0.07979100     -1.85365500     -0.91713200
O           3.32005100     -3.04187100      0.18695200
O           1.70972200     -5.20123900     -0.38190100
H           0.78316800     -2.95122500      0.74325200
H          -0.51448300     -3.81548900     -0.11829100
H           1.05811100     -4.13791300     -2.07026100
H           2.69714400     -2.27708700     -1.59261000
H           3.45571200     -3.88367900     -1.73331500
H           0.75010900     -1.13152900     -0.98798900
H          -0.87899200     -1.37456700     -0.32948000
H          -0.47577100     -2.02002100     -1.93456500
H           3.28333600     -3.90906500      0.62338100
H           0.86901600     -5.62489300     -0.15635200
