5
b3lypvdz=-40.480470111552 
C           0.34501600     -3.17033000     -0.25961000
H           1.12986800     -3.69148300     -0.82760100
H           0.10122200     -2.21988700     -0.75738400
H           0.70523600     -2.96738900      0.76046700
H          -0.55524200     -3.80091100     -0.21287200
