15
b3lypvdz=-304.644129843847 
C           0.30121300     -3.21298200     -0.26462000
C           1.46390400     -3.90741700     -0.97450000
C           0.92534900     -0.75583800     -0.79822400
N           0.46800200      0.28270200     -0.18251000
C          -0.87032000     -0.10810100      0.15605400
N          -1.25981300     -1.27696500     -0.20949400
C          -0.09941000     -1.85905400     -0.88809900
H           0.54852800     -3.04464800      0.79792400
H          -0.59777500     -3.85014500     -0.28552800
H           2.38122200     -3.29594300     -0.95694000
H           1.70036400     -4.86445400     -0.48348300
H           1.22325800     -4.12749500     -2.02880400
H           1.94076100     -0.77952200     -1.20589600
H          -1.50437300      0.59471000      0.70373200
H          -0.36791100     -2.03464700     -1.94961200
