8
b3lypvdz=-79.764162906137 
C           0.34360000     -3.16903300     -0.25865100
C           1.42520100     -3.95036700     -1.01134900
H           0.11128600     -2.21687600     -0.76441300
H           0.66646700     -2.92942900      0.76880100
H          -0.59302200     -3.74754800     -0.19047800
H           2.36182300     -3.37185200     -1.07952100
H           1.65751400     -4.90252400     -0.50558800
H           1.10233200     -4.18997000     -2.03880100
