11
b3lypvdz=-268.265781277804 
C          -5.48331400      0.48645900      0.19861800
C          -6.46473200      0.82542200     -0.93411100
C          -6.21513600     -0.05161800     -2.14086700
O          -6.65705000     -1.16433800     -2.31473700
O          -5.37280000      0.54506700     -3.02368500
H          -4.44027400      0.63990900     -0.12445800
H          -5.66993700      1.12561000      1.07518200
H          -5.59800300     -0.56447400      0.50946600
H          -7.49934700      0.64775900     -0.60370900
H          -6.35841900      1.88088900     -1.22929500
H          -5.23008800     -0.10488500     -3.73720500
