19
b3lypvdz=-252.927358995706 
C           2.77011300     -1.89276100     -1.64257300
N           2.18314000     -0.61203500     -1.26889400
C           3.14369500      0.45257600     -0.97644000
C           4.09103000      0.25146100      0.22613400
C           3.39269100      0.12705200      1.58968600
C           2.73465600      1.42471600      2.06860400
H           3.43868100     -2.36064100     -0.88865600
H           1.96540300     -2.61049200     -1.86719600
H           3.36476700     -1.76664100     -2.56449900
H           1.55134600     -0.73887600     -0.47729600
H           2.56450500      1.38301600     -0.84482400
H           3.75790900      0.60419700     -1.88313900
H           4.79833700      1.10221500      0.25592600
H           4.71230000     -0.64447500      0.05139800
H           4.13155600     -0.20550100      2.33972600
H           2.63561900     -0.67960400      1.54756300
H           3.47894100      2.23665500      2.14100500
H           2.27283500      1.30176400      3.06209500
H           1.94207600      1.76727500      1.38287900
