7
b3lypvdz=-149.92382283814 
N          -1.27843200     -1.27559200     -0.29232900
N          -1.70039000      0.69680600      0.86763900
C          -0.89073700     -0.12540200      0.10741200
H          -0.50481700     -1.75458100     -0.76365600
H          -2.68073100      0.42198200      0.87488700
H          -1.54891400      1.69642600      0.78343400
H           0.11592200      0.30446200     -0.05918700
