17
b3lypvdz=-288.822636455076 
C           1.46872400     -3.89656300     -0.97653400
C           2.84430300     -3.27550100     -1.19526800
C           2.81646000     -1.92483500     -1.91824800
N           2.18474200     -0.84372500     -1.14359800
C           3.04295100      0.30393700     -0.88189500
O           1.66055800     -5.11338700     -0.26387000
H           0.81242900     -3.19959300     -0.41347000
H           0.98032500     -4.06917400     -1.95941100
H           3.33818500     -3.15907700     -0.21304400
H           3.45276000     -3.99374000     -1.77089200
H           2.28853600     -2.04767300     -2.88585100
H           3.85443200     -1.64232500     -2.17386400
H           1.85998700     -1.22065700     -0.25300900
H           3.99344700      0.07416000     -0.34724100
H           2.48982200      1.04674300     -0.28374700
H           3.31470100      0.79157100     -1.83391700
H           0.79063900     -5.51496300     -0.12734200
