17
b3lypvdz=-342.962186730882 
C           0.34868200     -3.18179100     -0.26258500
C           1.37300900     -4.02861900     -1.01615800
C          -0.85205400     -0.00105200      0.17325100
N          -1.06980200     -1.16543500     -0.29672600
C           0.04386200     -1.84219000     -0.94057000
N          -1.79512500      0.69849900      0.90011900
O           1.69091000     -5.24624700     -0.35018900
H           0.71292100     -3.00216600      0.76473200
H          -0.59884000     -3.74606200     -0.17136700
H           2.32972000     -3.48446400     -1.10125400
H           1.01577800     -4.22074600     -2.05156700
H           0.12139500      0.52476500      0.08976200
H           0.96537100     -1.21650900     -0.95264100
H          -0.23550200     -2.03271900     -1.99547300
H          -2.73861300      0.32414900      0.82428800
H          -1.74820700      1.71094900      0.85207200
H           0.85849600     -5.72676200     -0.22959300
