14
b3lypvdz=-158.333934801069 
C           3.12581500      0.34603700     -0.87340500
C           4.08386800      0.21278900      0.31652900
C           3.40219200      0.22628500      1.69370200
C           2.73473600      1.56038900      2.05115700
H           2.36133100     -0.45143100     -0.86414100
H           2.58959900      1.31014400     -0.87211300
H           3.67195100      0.27551200     -1.82908900
H           4.83503000      1.02592300      0.27717100
H           4.65518200     -0.72734600      0.21081900
H           4.15742800     -0.01857400      2.46227400
H           2.65141500     -0.58657800      1.73766600
H           3.46529200      2.38835700      2.01184000
H           2.30825800      1.53679100      3.06814400
H           1.91290300      1.81080100      1.36054600
