17
b3lypvdz=-251.721282368603 
C           0.36037800     -3.17337000     -0.28513900
C           1.46172400     -3.96367500     -1.01401200
C           2.84483200     -3.30305900     -1.10055600
C           0.76205300     -0.65265200     -0.74052900
N           0.49101200      0.42014200     -0.10907700
C          -0.12960400     -1.85907900     -0.93994900
H           0.67898400     -2.96265600      0.75322800
H          -0.51902100     -3.83700900     -0.20577100
H           1.56873700     -4.93131000     -0.49140700
H           1.10866200     -4.21461500     -2.03237400
H           2.85980500     -2.44528500     -1.79191600
H           3.18265200     -2.94122700     -0.11398300
H           3.59515300     -4.02354700     -1.46657600
H           1.76604200     -0.70249000     -1.19504300
H          -0.46932700      0.36406600      0.27152100
H          -1.12264600     -1.60555700     -0.52737600
H          -0.26723700     -2.02907600     -2.02594100
