10
b3lypvdz=-189.215559921049 
C          -0.03296300     -1.87682600     -0.95373900
N           2.13992700     -0.76630700     -1.17337100
C           0.84560200     -0.66598900     -0.68400100
N           0.50004500      0.39047800     -0.04411600
H           0.55213100     -2.76741800     -1.23251400
H          -0.62264800     -2.12045300     -0.05652500
H          -0.73961100     -1.65741100     -1.77172100
H           2.27219600     -1.31311500     -2.01769600
H           2.63376700      0.12298300     -1.17628700
H          -0.45114600      0.27755700      0.32377000
