15
b3lypvdz=-233.523470412287 
C           0.37314900     -3.16841600     -0.26236400
C           1.44617700     -3.97076000     -1.00206000
C           2.78155500     -3.23707900     -1.11517900
C           2.71549200     -1.91506500     -1.88853900
O           1.72959400     -5.19949700     -0.31862700
H           0.10233900     -2.24609700     -0.80143000
H           0.72326700     -2.89443200      0.74774300
H          -0.54817700     -3.76697900     -0.14815100
H           1.08035700     -4.19818400     -2.02784200
H           3.17183800     -3.05988000     -0.09582700
H           3.49884000     -3.91926500     -1.60316000
H           2.10592200     -1.16062500     -1.36415400
H           2.28290300     -2.05817800     -2.89472300
H           3.72430100     -1.48918300     -2.01564800
H           0.89984300     -5.69386200     -0.25813900
