19
b3lypvdz=-307.051445354254 
C           0.25159500     -3.18700500     -0.17667300
C           2.70111500     -1.78494100     -2.11401800
N           2.19161600     -0.76064900     -1.22694300
C           0.94559900     -0.75410200     -0.63178000
N           0.67095200      0.21347600      0.18035700
C          -0.02423600     -1.88830700     -0.95112500
C           3.10755400      0.31773200     -0.87817200
H           1.24844600     -3.59845600     -0.40301800
H           0.19985600     -3.01048000      0.91034500
H          -0.49311000     -3.95832100     -0.43293500
H           3.45809400     -2.42791900     -1.62071700
H           1.89719500     -2.43378700     -2.48133600
H           3.18157800     -1.32863900     -2.99808000
H          -0.27970900      0.09654800      0.54205900
H          -1.03049100     -1.52211000     -0.69308800
H          -0.04543700     -2.09449700     -2.03529900
H           3.12637700      0.47473900      0.21070700
H           2.79338100      1.27401900     -1.33436500
H           4.11562500      0.06430000     -1.23691700
