11
b3lypvdz=-210.267266402263 
C           2.76537100     -3.23587100     -1.11036700
C           2.77007900     -1.91154200     -1.87318300
N           2.20873700     -0.76926600     -1.15231000
O           3.45255200     -3.02665100      0.12186000
H           1.71617200     -3.55811600     -0.93233300
H           3.25625600     -4.02013400     -1.72393000
H           2.21852400     -2.04819400     -2.82046700
H           3.81084600     -1.66392800     -2.14840700
H           1.22997000     -0.96935400     -0.92286400
H           2.67925500     -0.72438600     -0.24361600
H           3.46663800     -3.86646000      0.60121800
