9
b3lypvdz=-154.948597193893 
C           1.42035800     -3.95179000     -1.01563400
C           2.77686200     -3.25881100     -1.10900300
O           3.34795100     -2.99591000      0.17076700
H           0.72736400     -3.35497600     -0.40041700
H           1.51850200     -4.94533300     -0.54074300
H           0.97106200     -4.09652700     -2.01350500
H           2.66648800     -2.27372200     -1.59191500
H           3.47061600     -3.85324200     -1.74018000
H           3.47809800     -3.85138900      0.60512900
