16
b3lypvdz=-267.77435601934 
C           0.18506100     -3.15233100     -0.14363700
C           2.78022700     -1.83149500     -2.03507400
N           2.17472500     -0.81399800     -1.20859500
C           0.91044800     -0.77032500     -0.66810500
N           0.63248600      0.21591100      0.11558000
C          -0.04995900     -1.90130500     -1.00609600
H           1.19789800     -3.56308900     -0.28875000
H           0.07321500     -2.90605100      0.92554100
H          -0.53731300     -3.94668000     -0.39216200
H           3.35639000     -2.58395900     -1.45703900
H           2.02148700     -2.37245800     -2.62004000
H           3.47104100     -1.36557200     -2.75818400
H           2.76764100     -0.05910600     -0.87938300
H          -0.33970600      0.14592900      0.42970600
H          -1.06981700     -1.52214900     -0.83705600
H           0.01127500     -2.16672200     -2.07690600
