10
b3lypvdz=-135.082128623493 
N           2.81687500      3.99639400      2.77299800
C           2.70128800      1.55260100      2.06913700
C           3.53656900      2.82487400      2.26582100
H           2.37464000      3.76040900      3.66635900
H           2.03870400      4.20933500      2.14305500
H           3.30829000      0.72514800      1.66150800
H           2.26774700      1.21169100      3.02676900
H           1.86536600      1.73039000      1.36979700
H           4.00745300      3.11214900      1.30818300
H           4.36936800      2.61481100      2.96057300
