20
b3lypvdz=-328.119970407118 
C           0.36524700     -3.18533100     -0.14763700
C           1.35948500     -3.87393400     -1.07709300
C           2.80263400     -3.37675000     -0.95964100
C           3.09272400     -1.98516900     -1.52852500
N           2.46174200     -0.90598400     -0.77055200
C           2.80922400      0.42316600     -1.25611000
O           1.42544200     -5.27825000     -0.80129800
H           0.35502500     -2.10105300     -0.33214900
H           0.64535800     -3.36894700      0.90486900
H          -0.65248700     -3.58605200     -0.30691200
H           1.03343100     -3.70754600     -2.12849900
H           3.11995500     -3.42825200      0.09970900
H           3.43235700     -4.10131000     -1.50176900
H           2.71956100     -1.92650600     -2.56922000
H           4.19887900     -1.85708300     -1.59020000
H           2.75565200     -0.98539400      0.20605800
H           3.90341700      0.62937100     -1.28807100
H           2.33330100      1.18517700     -0.61970200
H           2.41876800      0.55461300     -2.28013800
H           0.51558600     -5.60676500     -0.75561900
