18
b3lypvdz=-272.80537712163 
C           0.40351900     -3.02107200     -0.23030700
C           1.38653100     -3.83829000     -1.09264600
C           2.82722900     -3.29463600     -1.15439100
C           2.97576000     -1.88517500     -1.72470300
C          -0.37407200     -1.94348900     -0.99454200
O           3.39976400     -3.22526300      0.15727400
H           0.97580900     -2.57684400      0.60233100
H          -0.32578800     -3.71015100      0.23178300
H           1.47040300     -4.86263800     -0.67990000
H           0.99182900     -3.96847000     -2.11775600
H           3.40913700     -3.98804300     -1.79790500
H           2.50420700     -1.15523000     -1.04833300
H           2.48797300     -1.79925200     -2.70886700
H           4.03966500     -1.62433600     -1.83027100
H           0.28879500     -1.20523000     -1.47440700
H          -1.06062200     -1.39670500     -0.32640500
H          -0.98165500     -2.39990100     -1.79661000
H           3.40901500     -4.12457600      0.51915700
