16
b3lypvdz=-267.772359432903 
C           0.26989400     -3.20984800     -0.26179800
C          -0.82403300      0.03155200      0.18417400
N          -1.08910800     -1.14792400     -0.22870900
C          -0.02590900     -1.85964600     -0.91916200
N          -1.70606600      0.79013100      0.91468200
C          -3.09345700      0.38960900      1.07177800
H           1.03575900     -3.76476400     -0.83000600
H           0.63786900     -3.07398100      0.76955200
H          -0.64437100     -3.82436000     -0.21892300
H           0.15267700      0.53334100      0.02139500
H           0.90983100     -1.25738600     -0.97300800
H          -0.35228400     -2.04316700     -1.96160400
H          -1.50826000      1.78196400      0.95658800
H          -3.66470700      0.43164000      0.12397000
H          -3.57888300      1.04448700      1.81055900
H          -3.13435300     -0.64724600      1.43781100
