20
b3lypvdz=-328.11589702802 
C           1.31978900     -3.82821400     -1.26685400
C           2.79013900     -3.61818300     -0.92881200
C           3.25335000     -2.17724400     -1.14222300
N           2.50327600     -1.23293300     -0.31136600
C           2.73578400      0.17644300     -0.62952500
C           4.15779300      0.70226900     -0.38611600
O           1.00105000     -5.18845000     -0.98631700
H           0.70538900     -3.12718100     -0.67374800
H           1.15305900     -3.58569500     -2.33907900
H           2.96312000     -3.93400000      0.11657900
H           3.40356900     -4.28732000     -1.55663700
H           3.07939700     -1.89486900     -2.19829500
H           4.35286000     -2.13214600     -0.98095200
H           2.74251300     -1.40059700      0.66953900
H           2.02086100      0.77194300     -0.03582800
H           2.45873100      0.32923800     -1.68833800
H           4.44724100      0.58429700      0.67362200
H           4.23215500      1.77381500     -0.63971000
H           4.90325500      0.16764400     -0.99644400
H           0.08526800     -5.34081700     -1.25749600
