19
b3lypvdz=-310.889389071554 
C           3.11846600      0.21234800     -0.91877700
C           4.04715500      0.11821000      0.29568600
C           3.34165600      0.24674400      1.65727200
C           2.70523600      1.60649000      2.00596900
C           3.69792200      2.74977700      2.25431900
C           4.11622600      3.54854100      1.04125700
O           3.66557500      3.41928600     -0.07489300
H           2.29487100     -0.51994200     -0.85211800
H           2.68022900      1.21758500     -1.01241800
H           3.67388300      0.00591800     -1.84925800
H           4.84447600      0.87807500      0.20255700
H           4.56558500     -0.85759300      0.27767100
H           4.06361200     -0.01285100      2.45404500
H           2.54750300     -0.52123100      1.71149200
H           2.10414900      1.46890600      2.92061000
H           2.00008100      1.91533900      1.21665100
H           3.27829800      3.49910200      2.95625400
H           4.62022600      2.39742400      2.75694300
H           4.89515200      4.32957300      1.25423600
