16
b3lypvdz=-213.643395065999 
C           2.74904800     -1.88273100     -1.62323600
N           2.16905800     -0.60063000     -1.24093400
C           3.13910900      0.45894600     -0.96082000
C           4.11908200      0.24400400      0.21075300
C           3.43099200      0.04044000      1.56276500
H           3.43675300     -2.34962500     -0.88569500
H           1.93952200     -2.60146900     -1.82624500
H           3.32238100     -1.75699600     -2.55892200
H           1.56021600     -0.73030100     -0.43143300
H           2.56536900      1.38790400     -0.78872300
H           3.72456000      0.62364200     -1.88486100
H           4.79545600      1.11665600      0.26189600
H           4.76874900     -0.62291800     -0.00750100
H           2.81165700      0.91320400      1.83596800
H           4.16443200     -0.11692500      2.36968800
H           2.76501600     -0.83990100      1.55320000
