17
b3lypvdz=-342.966004027232 
C           1.48694500     -3.90432300     -0.78708900
C           2.82991700     -3.30405300     -1.19791300
C           2.70208700     -1.91544300     -1.84708700
N           2.14200900     -0.90704200     -0.96947400
C           0.81297900     -0.56275200     -0.96118300
N           0.25827500      0.00938900      0.04272800
O           3.69086800     -3.12033400     -0.07020300
H           0.97807600     -3.25860000     -0.05547400
H           1.62752300     -4.89753500     -0.32674700
H           0.82793500     -4.03528900     -1.66162600
H           3.31755800     -3.97169900     -1.93959700
H           2.07583700     -1.98661600     -2.75087600
H           3.70713800     -1.59715500     -2.17259800
H           2.61235000     -0.79439500     -0.07428000
H           0.31389900     -0.80755900     -1.92073300
H          -0.71196300      0.24426500     -0.18720100
H           3.72026800     -3.95175700      0.42425200
