13
b3lypvdz=-336.766054116855 
N           2.23766300     -0.75577900     -1.14536900
C           0.95588500     -0.72059100     -0.68478600
N           0.43354600      0.29600000     -0.06191600
C          -0.90967700     -0.12426800      0.14201200
N          -1.27503100     -1.28966000     -0.29650500
C          -0.06318500     -1.82936600     -0.89035600
N          -1.71994900      0.72872800      0.85284300
H           2.65443300     -1.66486400     -1.30975200
H           2.86681800     -0.05871900     -0.75783600
H           0.26076300     -2.76695100     -0.39737600
H          -0.19302600     -2.06839400     -1.96297200
H          -2.71286900      0.54467100      0.74788200
H          -1.45957100      1.70749200      0.79063100
