10
b3lypvdz=-135.071748969943 
C           3.12917200      0.32183800     -0.90678100
C           2.74176300     -1.87752600     -1.86254900
N           2.15787300     -0.73106900     -1.17652600
H           4.02743800     -0.00881800     -0.33393700
H           2.64839700      1.13967300     -0.34544900
H           3.48904100      0.74292500     -1.86251000
H           3.61966300     -2.33209300     -1.34634200
H           1.97818100     -2.66176300     -1.99305700
H           3.07784800     -1.57067000     -2.86887200
H           1.76902400     -1.05079500     -0.28737600
