15
b3lypvdz=-287.622630784817 
C           0.19540300     -3.24127700     -0.29771700
C           1.53502800     -3.83048700     -0.75059400
C           0.80436200     -0.81011400     -0.87822900
N           0.67658900      0.30859600     -0.28274400
C          -0.21052000     -1.92423300     -0.99346500
O           1.82550100     -5.05984900     -0.10395100
H           0.22898100     -3.10060800      0.79691800
H          -0.59800200     -3.98661400     -0.49674600
H           2.36431000     -3.15602300     -0.48265100
H           1.55001700     -3.94027200     -1.85652500
H           1.77108000     -0.98918900     -1.38244200
H          -0.26401500      0.37091600      0.14061100
H          -1.17229900     -1.57687400     -0.57833400
H          -0.37662000     -2.12543200     -2.06971100
H           1.14768300     -5.69924000     -0.36862000
