19
b3lypvdz=-307.060652823018 
N           0.33447900      0.28804300     -0.17758100
C          -0.84595300     -0.09109700      0.14755600
N          -1.69013500      0.69989700      0.88427100
C          -3.09587900      0.41411000      1.08987100
C          -4.01957200      0.75627800     -0.08948300
C          -5.49876300      0.53636100      0.23567700
C          -6.43055200      0.79791500     -0.94832000
H           0.80873400     -0.46644800     -0.68262400
H          -1.30054800     -1.07204900     -0.09477100
H          -1.34975300      1.63845500      1.06850900
H          -3.42209700      0.97043600      1.98503000
H          -3.20442700     -0.65658500      1.34449300
H          -3.72911200      0.13981500     -0.96054500
H          -3.85027500      1.80767800     -0.38929000
H          -5.78396200      1.18862300      1.08236100
H          -5.64532200     -0.50020600      0.59457200
H          -6.19214000      0.13520100     -1.79743700
H          -7.48500200      0.62680900     -0.67553400
H          -6.34112000      1.83756400     -1.30955600
