9
b3lypvdz=-226.071539782386 
C           0.94677000     -0.71719700     -0.72996100
N           0.43693600      0.28807200     -0.09891300
C          -0.91212500     -0.13313000      0.14666300
N          -1.26451300     -1.29337100     -0.28243800
C          -0.05938300     -1.81770900     -0.91499100
H           1.98530500     -0.72817000     -1.07540100
H          -1.59195800      0.53649800      0.68017700
H           0.25341800     -2.76336500     -0.43485100
H          -0.24625000     -2.05752900     -1.97828700
