17
b3lypvdz=-342.953856508147 
C           2.99691500     -3.19072300     -1.14149000
C           2.40936800     -1.96751600     -1.84497600
N           2.01667300     -0.88595200     -0.95836100
C           0.70325500     -0.49130400     -0.87350800
N           0.34311200      0.58415100     -0.27125600
C           3.04829600      0.00897500     -0.44730500
O           4.28677100     -2.85795600     -0.63515800
H           2.31165100     -3.50509200     -0.32957300
H           3.05703800     -4.01908000     -1.87860500
H           1.52419600     -2.29700100     -2.41331900
H           3.15028800     -1.60396800     -2.58344600
H           0.01639200     -1.20646700     -1.36577000
H          -0.67786600      0.66123600     -0.29400600
H           2.66893300      0.50225500      0.45753600
H           3.29815100      0.80236000     -1.17891500
H           3.94803900     -0.57539200     -0.22222800
H           4.61608700     -3.61692400     -0.13341800
