16
b3lypvdz=-271.604443299281 
C           4.02242400      0.07684000      0.33468700
C           3.36021200      0.21365700      1.71039500
C           2.70336500      1.57466100      2.00658600
C           3.67237300      2.74776500      2.21306800
C           4.13105500      3.47605200      0.96938900
O           3.75065600      3.25377400     -0.15768100
H           3.29937800      0.27687500     -0.47259500
H           4.85604700      0.78318900      0.19765100
H           4.42525100     -0.93989300      0.19149200
H           4.10131200     -0.00618200      2.50246900
H           2.58085500     -0.56326800      1.81181800
H           2.09777300      1.47029000      2.92293000
H           2.00258900      1.83519000      1.19404900
H           3.21357400      3.52818000      2.85342700
H           4.57916300      2.43736000      2.76934700
H           4.87317500      4.29531100      1.17216700
