14
b3lypvdz=-307.551130430316 
C          -4.00591600      0.67862600     -0.09758900
C          -5.49166500      0.50658700      0.23000800
C          -6.44377100      0.82376400     -0.94185300
C          -6.16474600     -0.06007900     -2.13774600
O          -6.46111400     -1.22824100     -2.23937500
O          -5.49178100      0.61208100     -3.10953500
H          -3.38483700      0.48136800      0.79133600
H          -3.67945300     -0.01620800     -0.88858100
H          -3.78277900      1.70131600     -0.44893000
H          -5.77037200      1.16359900      1.07170300
H          -5.68439500     -0.52814700      0.56225600
H          -7.48118700      0.63050900     -0.62755400
H          -6.34922000      1.87842300     -1.24489200
H          -5.31966400     -0.03889900     -3.81614900
