13
b3lypvdz=-174.367661551216 
N          -7.87862600      0.65503700     -0.60850500
C          -4.00994400      0.70410200     -0.13528700
C          -5.47935600      0.48877700      0.23995900
C          -6.45459700      0.83859300     -0.89406600
H          -8.13120200      1.20579300      0.21663600
H          -8.04309000     -0.31785500     -0.33378500
H          -3.33470600      0.43517200      0.69316700
H          -3.72632500      0.09000900     -1.00723900
H          -3.81565600      1.75902800     -0.39765400
H          -5.73246700      1.09896800      1.12770100
H          -5.63714200     -0.56660900      0.53526200
H          -6.20969000      0.23170700     -1.78491400
H          -6.30340200      1.89237900     -1.19507400
