17
b3lypvdz=-288.839283326723 
C           0.28264300     -3.21290300     -0.31409000
C           1.42673500     -3.99024400     -0.97356400
C           2.76224000     -3.24218900     -1.12554300
C           2.69381600     -1.89021700     -1.87701700
N           2.35237500     -0.70960200     -1.08575000
O           3.35427400     -2.95351000      0.14884400
H          -0.10038800     -2.41349200     -0.97081100
H           0.61362500     -2.75424600      0.63160800
H          -0.56606900     -3.87993100     -0.09198200
H           1.62916700     -4.91107100     -0.39180200
H           1.11063400     -4.34383600     -1.97268600
H           3.43208300     -3.90508300     -1.71248600
H           1.98187000     -1.98493600     -2.71601800
H           3.68125100     -1.70330900     -2.33364000
H           1.41015200     -0.80816400     -0.70312300
H           2.96129900     -0.70466300     -0.26415500
H           3.49989400     -3.79510400      0.60411400
