16
b3lypvdz=-267.779212871997 
C           0.41835300     -3.17798400     -0.25972100
N           2.13931800     -0.76705100     -1.07086000
C           0.84077600     -0.66265400     -0.63915400
N           0.47124100      0.41519500     -0.03738600
C          -0.03248400     -1.87531100     -0.94292200
C           3.08925500      0.31397200     -0.90141500
H           1.42498000     -3.48831000     -0.58728800
H           0.44402500     -3.06346200      0.83681400
H          -0.27318500     -4.00194400     -0.50008900
H           2.41689600     -1.57896600     -1.60067300
H          -0.51361800      0.33429400      0.23323300
H          -1.06042400     -1.62906100     -0.63377300
H          -0.05716100     -2.02911700     -2.03843700
H           3.19928400      0.57818400      0.16377600
H           2.76214100      1.22791600     -1.42835700
H           4.06610300      0.00000100     -1.29845200
