16
b3lypvdz=-213.647670841864 
C           0.28853000     -3.18507700     -0.36185000
C           1.45724700     -3.97715000     -0.95646500
C           2.77661900     -3.20548700     -1.13515400
C           2.68604800     -1.90351500     -1.95034700
N           2.42773600     -0.74322000     -1.08854600
H          -0.01783400     -2.35515800     -1.02096500
H           0.54028300     -2.75692100      0.62442700
H          -0.59573500     -3.82987200     -0.22891900
H           1.65553900     -4.85826300     -0.31990600
H           1.14247500     -4.38455200     -1.93583500
H           3.20948000     -2.94450400     -0.15270100
H           3.49482500     -3.88390100     -1.62735700
H           1.94560100     -2.04396600     -2.77044400
H           3.65456400     -1.71913900     -2.44532000
H           1.48948600     -0.80261800     -0.68762600
H           2.42333800      0.10804400     -1.65589300
