16
b3lypvdz=-267.775909761574 
N           0.34919200      0.31624100     -0.18449600
C          -0.79004700     -0.10723300      0.22224400
N          -1.69536800      0.71944100      0.83553200
C          -3.09124500      0.39284100      1.04849200
C          -4.02115300      0.72829900     -0.13015100
C          -5.49954300      0.53050000      0.21147700
H           0.89300100     -0.46528600     -0.56144000
H          -1.15420300     -1.15181400      0.15674100
H          -1.43174800      1.70137700      0.83384900
H          -3.44088500      0.92508900      1.95062900
H          -3.15944300     -0.68422700      1.28509900
H          -3.73990400      0.10316000     -0.99630100
H          -3.84237300      1.77502300     -0.43695500
H          -6.14822900      0.76832900     -0.64676000
H          -5.80707000      1.18068800      1.04834700
H          -5.70988400     -0.51132800      0.51109300
