16
b3lypvdz=-308.717214940286 
C           0.35875400     -3.17175900     -0.30977100
C           1.43021700     -3.97824400     -1.03754700
C           2.78448300     -3.25165900     -1.13696200
C           2.72286600     -1.90020300     -1.83363100
O           3.31106400     -3.04195600      0.16960200
O           1.75126400     -5.18630400     -0.32618200
H           0.05335700     -2.29177400     -0.89822300
H           0.74757500     -2.82229900      0.65908100
H          -0.54468700     -3.78210600     -0.14058400
H           1.08119100     -4.22836900     -2.06100200
H           3.44883100     -3.92649800     -1.71623500
H           2.15547800     -1.17660300     -1.22763300
H           2.24436600     -1.98419200     -2.82347000
H           3.73893000     -1.50091900     -1.97254600
H           3.24914600     -3.90822100      0.60619100
H           0.92336400     -5.63639400     -0.10558800
