18
b3lypvdz=-326.905931490193 
C           0.45021100     -3.13548800     -0.23413300
C           1.49681800     -3.83095400     -1.12445900
C           2.93663000     -3.33441700     -0.94883200
C           0.63100500     -0.64778400     -0.94232600
N           0.43264300      0.49447100     -0.41451400
C          -0.23285200     -1.88334800     -0.82884100
O           3.37861800     -3.41285100      0.40037600
H           0.92384200     -2.89024900      0.73222500
H          -0.35337100     -3.85681100     -0.00935800
H           1.49536200     -4.91270100     -0.88670000
H           1.21250300     -3.75541300     -2.19160500
H           3.03284300     -2.27191500     -1.22402000
H           3.60581300     -3.90224200     -1.62670700
H           1.53733100     -0.74371600     -1.56621500
H          -0.44146400      0.47156600      0.13735800
H          -1.11780500     -1.62953300     -0.21844900
H          -0.60737500     -2.13845600     -1.84057400
H           3.38044800     -4.34816100      0.65357300
