11
b3lypvdz=-281.418139304674 
C           0.94523700     -0.72064500     -0.73808500
N           0.44016500      0.28910000     -0.11731100
C          -0.91444800     -0.13217300      0.13276300
N          -1.26620900     -1.30131600     -0.29497300
C          -0.06094800     -1.82893700     -0.91036700
N          -1.70082600      0.72716200      0.85593800
H           1.98419300     -0.73038700     -1.08403200
H           0.28002500     -2.76324700     -0.42238200
H          -0.21638600     -2.08376000     -1.97723100
H          -2.69800500      0.54754400      0.79471900
H          -1.43349800      1.70425800      0.80096100
