13
b3lypvdz=-228.490314371445 
C           3.02982300     -3.27379700     -1.12679300
C           2.59582800     -1.99742300     -1.85719600
N           2.10746100     -0.95653100     -0.97557400
C           0.80235700     -0.56388600     -0.85307000
N           0.43589500      0.33500200     -0.01520500
H           2.18301000     -3.72025400     -0.57970800
H           3.82698000     -3.06107800     -0.39486100
H           3.41962900     -4.01890700     -1.84073700
H           1.79022000     -2.23253000     -2.57323300
H           3.43788200     -1.60896300     -2.46042500
H           2.76182100     -0.49710800     -0.34904900
H           0.13528000     -1.10283800     -1.55522300
H          -0.57298500      0.49021300     -0.09462700
