13
b3lypvdz=-174.358168716141 
C           2.78681000     -1.89380700     -1.74955300
C           3.07019700      0.40203300     -0.89583900
N           2.15028700     -0.67866500     -1.25533500
C           4.11612700      0.10201900      0.18624600
H           3.47288600     -2.40319100     -1.03927700
H           2.01001500     -2.61806800     -2.04183700
H           3.37533300     -1.65956500     -2.65405300
H           2.45184200      1.25959000     -0.57745500
H           3.58691200      0.72460500     -1.82010600
H           1.57046700     -0.90861900     -0.44602400
H           3.63482500     -0.21985500      1.12694300
H           4.71701800      1.00048700      0.40769000
H           4.81538100     -0.69176300     -0.12310100
