9
b3lypvdz=-154.947876168412 
C           2.77860700     -3.24047900     -1.12785200
C           2.73945500     -1.92056300     -1.87618900
O           3.33348200     -2.99798100      0.16698000
H           1.75245600     -3.65747300     -1.04473000
H           3.39284100     -3.97348400     -1.69259300
H           2.13949100     -1.18121800     -1.32088400
H           2.29607800     -2.05249500     -2.87731500
H           3.75647400     -1.50980800     -1.99215200
H           3.36821500     -3.84689900      0.62943400
