22
b3lypvdz=-292.210937535767 
C           2.83874800     -1.98412900     -1.51542200
N           2.17368200     -0.70578500     -1.29167300
C           3.06098900      0.44405700     -1.10828800
C           4.03506500      0.40414300      0.09014100
C           3.35300400      0.27062000      1.46161200
C           2.67792400      1.54578400      1.99454300
C           3.66219600      2.61109800      2.48559900
H           3.54267700     -2.31450900     -0.72225300
H           2.07748200     -2.77150800     -1.63415400
H           3.41635200     -1.93955100     -2.45610700
H           1.54122100     -0.78366500     -0.49438400
H           2.41394800      1.33621200     -1.04169400
H           3.65030500      0.56178400     -2.03672700
H           4.66643800      1.31020300      0.05897700
H           4.73225000     -0.44098000     -0.04738100
H           4.09339400     -0.07278600      2.20641200
H           2.60068400     -0.53802900      1.40536300
H           2.01289700      1.26468500      2.83003100
H           2.01490000      1.97795700      1.22152700
H           4.28911500      3.01105100      1.67156900
H           3.13461800      3.46487400      2.94207800
H           4.34351100      2.19597600      3.24923200
