17
b3lypvdz=-288.831920965309 
C           1.36152900     -3.82818500     -1.03553500
C           2.80753200     -3.33481000     -1.12995400
C           2.94109100     -1.93336100     -1.73429400
N           2.32274900     -0.90162000     -0.92311700
C           2.97378900      0.38707500     -0.98840800
O           3.42871900     -3.25107300      0.15988300
H           0.71106100     -3.06044000     -0.58942400
H           1.30005700     -4.76552400     -0.45737900
H           0.96810000     -4.05701000     -2.04139200
H           3.36144000     -4.00869500     -1.81891100
H           2.46505400     -2.00045000     -2.73847700
H           4.01502700     -1.71578500     -1.91846100
H           2.31157500     -1.23334100      0.04227700
H           4.07005900      0.40071600     -0.76950700
H           2.46385100      1.09444100     -0.31685600
H           2.87297800      0.79404500     -2.01399100
H           3.32728900     -4.10508500      0.60724600
