19
b3lypvdz=-252.929515426703 
C           0.30466800     -3.20431700     -0.16127800
C           1.26219900     -3.78616700     -1.20421700
C           2.73916500     -3.39327300     -1.02516000
C           3.12417900     -1.99534700     -1.52389000
N           2.46384900     -0.91720600     -0.79186400
C           2.83458900      0.41050800     -1.26014800
H           0.31866200     -2.10480000     -0.19354100
H           0.59602500     -3.51655900      0.85854100
H          -0.72727200     -3.55618900     -0.32919700
H           1.18857200     -4.88890600     -1.18622900
H           0.93518300     -3.47655800     -2.21500800
H           3.02653700     -3.49547000      0.04049200
H           3.37352100     -4.11233600     -1.57236200
H           2.82837200     -1.90123700     -2.58661900
H           4.23618500     -1.89664300     -1.50162100
H           2.70670500     -1.00049000      0.19828800
H           3.92834500      0.62100500     -1.23843200
H           2.32546200      1.17470300     -0.65306800
H           2.49955600      0.53988200     -2.30428600
