14
b3lypvdz=-212.432390869192 
C           0.34499900     -3.19256200     -0.25924100
C           1.41337900     -3.98377100     -1.01844600
C          -0.94824100     -0.05962200      0.18957800
N          -1.13272500     -1.22398500     -0.27656400
C          -0.01192300     -1.87065500     -0.94448500
H           0.69626900     -2.97118300      0.76520800
H          -0.57563700     -3.79218000     -0.15467300
H           2.33675700     -3.39299700     -1.14906100
H           1.68328700     -4.90734000     -0.48221200
H           1.05812400     -4.27428600     -2.02270500
H           0.01318600      0.49086300      0.10996900
H          -1.77317400      0.44919600      0.70948900
H           0.88512400     -1.21249800     -0.98908900
H          -0.32892400     -2.08048200     -1.98376900
