10
b3lypvdz=-193.034354847997 
C           4.12554700      3.31907000      0.95582900
O           3.49136000      3.21406700     -0.07390500
C           2.65887000      1.58908000      2.06082300
C           3.66382300      2.71457800      2.26394600
H           5.09232900      3.87164300      0.99140800
H           3.16042500      0.66988900      1.72295000
H           2.11179400      1.36190900      2.98472900
H           1.95388500      1.89867400      1.27998300
H           3.15183900      3.55618000      2.77374200
H           4.51472600      2.45631100      2.90779500
