20
b3lypvdz=-328.120090752417 
C           0.31547000     -3.16661100     -0.20330300
C           1.32435800     -3.83628900     -1.13822000
C           2.77936700     -3.34630900     -1.03257300
C           3.06411900     -1.95195900     -1.59775300
N           2.45880500     -0.89318700     -0.80312200
C           2.88693200      0.43655400     -1.21148000
O           3.24344700     -3.31744100      0.32414200
H           0.24615900     -2.08814800     -0.40638400
H           0.62809300     -3.28587100      0.84801000
H          -0.68018000     -3.62587600     -0.31821500
H           1.32881100     -4.92701600     -0.94044300
H           1.00337400     -3.72301300     -2.19039700
H           3.40471900     -4.04693700     -1.62453900
H           2.67246600     -1.90094700     -2.63035500
H           4.17194400     -1.84293000     -1.67389600
H           2.72519800     -1.05539200      0.16955800
H           3.99142500      0.58713600     -1.19144900
H           2.42581400      1.19632900     -0.56154000
H           2.54894000      0.63557900     -2.24367100
H           3.08624100     -4.18997300      0.71313200
