13
b3lypvdz=-174.358210830861 
C           3.16785200      0.10804500     -0.74422900
C           2.98875700     -3.00882000     -1.08196200
C           2.56782300     -1.89215100     -2.04756800
N           2.12291000     -0.63829200     -1.43668500
H           3.72247700     -0.45394600      0.03930900
H           2.72778300      0.99776800     -0.26593100
H           3.91205200      0.46398200     -1.47855300
H           2.14265900     -3.30976600     -0.43823500
H           3.81455000     -2.69727400     -0.42170000
H           3.32321100     -3.90613900     -1.63073300
H           1.75112700     -2.25885700     -2.69556900
H           3.40466600     -1.64540400     -2.72647900
H           1.36113400     -0.83584600     -0.78496500
