14
b3lypvdz=-249.549881078881 
C           1.48696900     -3.94681900     -0.96816200
C           2.83543000     -3.26042700     -1.13752000
C           2.76617200     -1.91026900     -1.87552700
N           2.15567700     -0.78011600     -1.16708700
O           1.70143400     -5.18142900     -0.28830000
H           0.79598400     -3.29191700     -0.39458600
H           1.02793100     -4.11189500     -1.96696900
H           3.28890100     -3.11582800     -0.13873500
H           3.50103400     -3.95126600     -1.68481100
H           2.21918100     -2.04172200     -2.82782500
H           3.78841000     -1.60561300     -2.15876400
H           1.19695700     -1.00996200     -0.89522800
H           2.65348400     -0.62658000     -0.28569700
H           0.84153400     -5.61575800     -0.19549100
