22
b3lypvdz=-292.211301780864 
C           1.41396500     -3.74224200     -0.83338500
C           2.83166200     -3.20895200     -1.07004600
C           2.87943800     -1.91586400     -1.89869300
N           2.22189200     -0.75327000     -1.28847800
C           3.07471000      0.37854600     -0.93153100
C           4.06326500      0.20157700      0.23928100
C           3.39021900     -0.00430700      1.59856500
H           0.78585000     -3.02427700     -0.27704800
H           1.43003100     -4.67478600     -0.24630300
H           0.90350600     -3.95408300     -1.78859800
H           3.34189900     -3.04600600     -0.10295800
H           3.42000900     -3.97801000     -1.60321500
H           2.41754900     -2.12535800     -2.88573700
H           3.93532200     -1.66627900     -2.10693700
H           1.64634000     -1.03694700     -0.49769500
H           2.41102300      1.23444900     -0.70868600
H           3.64351000      0.66429500     -1.83414400
H           4.70644700      1.10058300      0.28405900
H           4.74158700     -0.64432300      0.02340200
H           2.74531700      0.85268000      1.86075500
H           4.13511100     -0.12096600      2.40224800
H           2.75434800     -0.90625900      1.60754400
