14
b3lypvdz=-249.558053144666 
C           1.41954300     -3.88988500     -0.96790400
C           2.80792300     -3.27945200     -1.16039400
C           2.79084800     -1.91236000     -1.86782800
N           2.15565300     -0.81099000     -1.14721100
O           3.44856700     -3.05461100      0.10287000
H           0.78279900     -3.21498400     -0.37248400
H           1.48055300     -4.85269300     -0.43208200
H           0.92628200     -4.08107000     -1.93607100
H           3.41835200     -3.96647500     -1.78420900
H           2.29676200     -2.02898800     -2.84903200
H           3.83592300     -1.62447400     -2.07471100
H           1.16252800     -1.01391300     -1.01028400
H           2.55420600     -0.78661900     -0.20413100
H           3.50436300     -3.90368500      0.56377300
