15
b3lypvdz=-233.519050487782 
C           0.34287700     -3.17001300     -0.26052900
C           1.41721300     -3.95537400     -1.03265400
C           2.78271700     -3.26649900     -1.10559400
C          -0.07729700     -1.84458900     -0.90931400
O           3.33022400     -2.98365400      0.18184400
H           0.71489500     -2.97286600      0.76010400
H          -0.54899300     -3.81427900     -0.15535600
H           1.55663500     -4.94189600     -0.54699000
H           1.06116100     -4.16729500     -2.05936900
H           2.70181500     -2.29110500     -1.61282400
H           3.48180500     -3.88278400     -1.70885100
H           0.75655400     -1.12324400     -0.94442800
H          -0.89299700     -1.37190100     -0.33735800
H          -0.44167700     -1.99857800     -1.94129700
H           3.43726700     -3.83142400      0.63771700
