14
b3lypvdz=-158.333816699337 
C           0.34956100     -3.16745000     -0.26421300
C           1.42691100     -3.96282200     -1.01277500
C           2.78098200     -3.24375700     -1.12598300
C           2.73084600     -1.91225100     -1.88540600
H           0.07765700     -2.24273900     -0.79971800
H           0.69333100     -2.88118600      0.74543900
H          -0.57183500     -3.76253400     -0.14978800
H           1.58274900     -4.93068700     -0.50226400
H           1.05809800     -4.20773400     -2.02690300
H           3.18429400     -3.06790000     -0.11047000
H           3.49746000     -3.91792100     -1.62938100
H           2.12047100     -1.16208600     -1.35620300
H           2.30095600     -2.04497600     -2.89410400
H           3.74211900     -1.48795700     -2.00303100
