10
b3lypvdz=-135.081269610451 
C           2.77184900     -3.20789600     -1.12850900
C           2.71872500     -1.92205400     -1.94858300
N           2.24622400     -0.80574700     -1.12118200
H           1.76063200     -3.51498400     -0.80548800
H           3.38325600     -3.06542600     -0.22311900
H           3.20052700     -4.03602700     -1.71696700
H           2.11412700     -2.10110900     -2.86587200
H           3.73680200     -1.66680000     -2.29422000
H           1.27686800     -0.98000200     -0.84051600
H           2.21618900      0.04964500     -1.68084400
