17
b3lypvdz=-197.615181252778 
C           0.29771500     -3.19236500     -0.25811600
C           1.40172200     -3.84813000     -1.10821200
C           2.79028900     -3.18330500     -1.09113500
C           2.96415200     -1.97887800     -2.01859700
C          -0.25600400     -1.84705500     -0.73594300
H           0.67028000     -3.08408900      0.77788100
H          -0.54458400     -3.90570900     -0.19961500
H           1.52251600     -4.87919200     -0.73028700
H           1.05728000     -3.95305400     -2.15490400
H           3.04571000     -2.89986600     -0.05221400
H           3.53716000     -3.94404000     -1.38219500
H           2.34223600     -1.12036800     -1.72380100
H           2.67951700     -2.24210000     -3.05387600
H           4.01259100     -1.63972800     -2.04050100
H           0.49764700     -1.04493600     -0.70285900
H          -1.10328900     -1.52877700     -0.10777300
H          -0.62273900     -1.90960900     -1.77575200
