20
b3lypvdz=-290.997918142116 
C           0.40158500     -3.03754700     -0.19494900
C           1.43058100     -3.85030300     -0.99867100
C           2.83822200     -3.24451700     -1.15781800
C           2.97877100     -2.18846400     -2.25724500
C          -1.24138700     -0.12264700      0.40894700
N          -1.28158000     -1.24833800     -0.17530400
C          -0.06002200     -1.71276700     -0.82226600
H           0.80275100     -2.82952900      0.81434400
H          -0.50075700     -3.65514500     -0.04527100
H           1.53095100     -4.82966900     -0.49935600
H           1.01949300     -4.07040700     -2.00327100
H           3.16935700     -2.82476800     -0.18877800
H           3.54179700     -4.06519500     -1.38565200
H           2.38538500     -1.28428600     -2.05136700
H           2.64788700     -2.59106300     -3.23113200
H           4.02813700     -1.86903800     -2.36979500
H          -0.33892700      0.52283900      0.44018300
H          -2.14137500      0.25387900      0.91612400
H           0.74269300     -0.94925000     -0.76942900
H          -0.29596300     -1.88368500     -1.88849400
