13
b3lypvdz=-174.365864251006 
C           1.42218900     -3.88993200     -0.97703200
C           2.80000900     -3.24546100     -1.16556300
C           2.76913100     -1.91623700     -1.92622600
N           2.14552800     -0.85830300     -1.12237100
H           0.74395400     -3.24615000     -0.39087700
H           1.49796800     -4.84735500     -0.43667500
H           0.93670400     -4.09231400     -1.94829600
H           3.26433400     -3.06117400     -0.18028000
H           3.46029900     -3.94532100     -1.70719800
H           2.29002200     -2.08620100     -2.91821800
H           3.80536300     -1.59728500     -2.13508200
H           1.15049200     -1.06255400     -0.99970200
H           2.16910600      0.02278800     -1.64148100
