15
b3lypvdz=-233.523687280127 
C           0.35521100     -3.17569600     -0.25888500
C           1.43731800     -3.96912500     -1.00653900
C           2.76312400     -3.22939400     -1.13118400
C          -0.05342300     -1.84595200     -0.90459000
O           1.72990900     -5.19148900     -0.31509400
H           0.70751000     -3.00118600      0.77432200
H          -0.54061300     -3.82187300     -0.17331400
H           1.06438900     -4.20732800     -2.02732700
H           2.66477500     -2.32506400     -1.75134200
H           3.13966900     -2.93489500     -0.13613500
H           3.51760600     -3.88440000     -1.59462200
H           0.77638100     -1.11955400     -0.89984300
H          -0.89261300     -1.38828900     -0.35614200
H          -0.37868600     -1.98675000     -1.95068000
H           0.90034400     -5.68410600     -0.23522500
