14
b3lypvdz=-320.706360343615 
C           0.37022800     -3.19549100     -0.27941300
C           0.93636600     -0.72671400     -0.70718100
N           0.43149500      0.29601700     -0.11042800
C          -0.92383600     -0.12265100      0.14626500
N          -1.26892700     -1.30240200     -0.25355300
C          -0.06560800     -1.84754700     -0.87287600
N          -1.71232000      0.75793300      0.83653300
H           1.26101100     -3.58440400     -0.79876200
H           0.60046700     -3.09627100      0.79342200
H          -0.44537100     -3.92582800     -0.39285100
H           1.97636500     -0.73620300     -1.05241400
H          -0.24956200     -1.99811500     -1.95764200
H          -2.70980400      0.57900400      0.78369100
H          -1.44050700      1.73197200      0.75651000
