15
b3lypvdz=-324.745226677382 
C           1.47504900     -3.95338500     -1.02990300
C           2.83135500     -3.26808800     -1.17946800
C           2.77001900     -1.89509500     -1.86888400
N           2.16750200     -0.80807000     -1.09982400
O           3.40602800     -3.08085700      0.10887700
O           1.72198600     -5.14993000     -0.29182000
H           0.78455400     -3.28396300     -0.47966100
H           1.03651200     -4.17172600     -2.02388900
H           3.46689900     -3.93677500     -1.79890900
H           2.23705800     -1.99845700     -2.83078400
H           3.80282800     -1.60017600     -2.12063900
H           1.18012600     -1.00962200     -0.92535700
H           2.60305400     -0.81322700     -0.17292200
H           3.24732700     -3.91415400      0.58330100
H           0.87390300     -5.53177600     -0.02621800
