14
b3lypvdz=-320.708452240794 
C           0.36693700     -3.16043200     -0.27589600
N           2.22210200     -0.76169300     -1.13915900
C           0.91820200     -0.69739700     -0.75027200
N           0.39561900      0.32216800     -0.12324500
C          -0.92378700     -0.11791500      0.13434500
N          -1.28633200     -1.29190600     -0.26130600
C          -0.08452000     -1.83515000     -0.90514600
H           1.26043700     -3.55793600     -0.78545700
H           0.61176400     -3.01871400      0.78884700
H          -0.44038900     -3.90445500     -0.35266100
H           2.46377900     -1.39101100     -1.89600700
H           2.72630200      0.12066500     -1.13372300
H          -1.60875400      0.55167600      0.66404400
H          -0.30885900     -2.00300000     -1.97696600
