13
b3lypvdz=-232.317389952112 
C          -4.00345800      0.71673500     -0.12206300
C          -5.47998100      0.48939900      0.22264600
C          -6.46181200      0.80300200     -0.92709800
C          -6.18746000     -0.04318900     -2.15315700
O          -6.69440800     -1.12292000     -2.35740500
H          -3.36357800      0.52369500      0.75417200
H          -3.66196800      0.04630400     -0.92787100
H          -3.82009600      1.75484200     -0.45094800
H          -5.75954300      1.11196300      1.08959500
H          -5.63038700     -0.55997200      0.53074700
H          -7.49273600      0.59558900     -0.59628900
H          -6.38610200      1.87031200     -1.20644100
H          -5.44737200      0.38473900     -2.88318800
