18
b3lypvdz=-272.804857787914 
C           0.32970000     -3.18837800     -0.21436200
C           1.42700200     -3.86946600     -1.05455000
C           2.79088700     -3.16063300     -1.06977300
C           2.92118100     -2.00415600     -2.05968700
C          -0.21311100     -1.84819000     -0.71417000
O           1.68921100     -5.17259300     -0.52359400
H           0.71113000     -3.08570300      0.81702600
H          -0.51622400     -3.90162100     -0.16600700
H           1.06804300     -3.95277700     -2.10459800
H           3.03249600     -2.83149000     -0.04248100
H           3.52752900     -3.93869000     -1.32927000
H           2.31821000     -1.12714800     -1.78183000
H           2.60057800     -2.31432500     -3.07072900
H           3.96880800     -1.67249300     -2.13762600
H           0.52483000     -1.03620500     -0.62750100
H          -1.09677900     -1.55088000     -0.12833000
H          -0.52199200     -1.90227500     -1.77236600
H           0.83900100     -5.62667700     -0.42895100
