16
b3lypvdz=-213.651605787173 
C           4.04150000      0.27153100      0.31889300
C           3.43766400      0.22758700      1.72944700
C           2.67575500      1.50266000      2.12566400
C           3.54902800      2.75711700      2.28655200
N           2.84812200      3.98395500      2.67623300
H           3.26206700      0.47381600     -0.43683600
H           4.80999500      1.05568900      0.21827300
H           4.52005200     -0.68656700      0.05524400
H           4.23757400      0.03536200      2.46890900
H           2.74741000     -0.63190500      1.80191300
H           2.14394200      1.32730200      3.08071500
H           1.89017900      1.70727800      1.37128200
H           4.08603900      2.97126800      1.34553400
H           4.33281500      2.55862000      3.04136500
H           2.33237200      3.81561600      3.54547400
H           2.12618700      4.19067000      1.98093700
