18
b3lypvdz=-364.021049259528 
C           1.42984500     -3.92908100     -1.12426800
C           2.85395600     -3.33608000     -1.13420500
C           2.95378500     -1.92031200     -1.70907100
N           2.37377700     -0.92662800     -0.82885300
C           2.94751300      0.38988900     -0.98914000
O           3.35143100     -3.29879000      0.18730900
O           1.54734400     -5.12603500     -0.36897600
H           0.73738400     -3.17849400     -0.69564200
H           1.09618500     -4.10875600     -2.16507800
H           3.44594100     -3.99571700     -1.80751400
H           2.42224500     -1.95451300     -2.68630100
H           4.01603000     -1.69535600     -1.94816900
H           2.53818500     -1.26327600      0.12332800
H           4.06076500      0.44917700     -0.90174100
H           2.49805300      1.08360600     -0.26337600
H           2.70246000      0.77191900     -1.99816400
H           3.03301800     -4.11963100      0.60526900
H           0.69338300     -5.37412400      0.01369400
