8
b3lypvdz=-133.854956042279 
N          -1.15969900     -1.21907900     -0.26753300
C          -0.05436700     -1.90392500     -0.94434400
C          -0.92452300     -0.05944900      0.18616500
H          -0.39772500     -2.87700000     -1.32580200
H           0.78765000     -2.08302000     -0.25186600
H           0.32339500     -1.31458200     -1.79978100
H           0.05359000      0.46067100      0.09845900
H          -1.72982100      0.48838400      0.69690100
