14
b3lypvdz=-303.67547419505 
C           2.83502200     -3.26800200     -1.03449000
C           2.65880600     -1.97309400     -1.82457900
N           2.16786600     -0.87133300     -1.01979000
C           0.83276900     -0.55648100     -0.92957600
N           0.34959300      0.09990200      0.05888000
O           3.79097900     -3.00357200     -0.01399900
H           1.85941000     -3.57372000     -0.60424400
H           3.18114200     -4.07131000     -1.71773600
H           1.96036600     -2.14382000     -2.66037400
H           3.63264500     -1.69689400     -2.26663400
H           2.69835600     -0.68605400     -0.17106200
H           0.26062000     -0.90030900     -1.81517500
H          -0.64206200      0.29550300     -0.10859400
H           3.78768600     -3.74721600      0.60407200
