14
b3lypvdz=-320.697823950731 
C           0.92533000     -0.70512400     -0.75531900
N           0.42401900      0.29942200     -0.12441500
C          -0.91514500     -0.14300500      0.17292400
N          -1.26155300     -1.32356900     -0.23939200
C          -0.06495600     -1.83409200     -0.88724200
N          -1.68754400      0.71133700      0.89681400
C          -3.10508500      0.47521000      1.07940100
H           1.95275300     -0.69882700     -1.13457600
H           0.31209000     -2.75569300     -0.40041900
H          -0.24459100     -2.10468500     -1.94659600
H          -1.33394600      1.65750900      0.96207700
H          -3.68977400      0.61913900      0.15029300
H          -3.48905500      1.15767100      1.85082600
H          -3.26194300     -0.56199400      1.41192300
