10
b3lypvdz=-284.297114636005 
C           3.62764400      3.00787900      2.32345000
C           4.20805900      3.50159200      1.01692800
O           3.71127800      4.33467700      0.29483200
O           5.35769300      2.85219400      0.71506900
N           2.57951600      3.89799900      2.79165200
H           3.32337300      1.95330900      2.12455800
H           4.44881600      2.94740700      3.05928500
H           5.63981500      3.19981000     -0.15153200
H           1.98262300      3.40590300      3.45705300
H           1.98968100      4.16123000      1.99940400
