11
b3lypvdz=-268.266376586872 
C           2.69112000      1.57199900      2.06862700
C           3.58015700      2.80638600      2.26733800
C           4.13669800      3.28863800      0.94385300
O           3.47361400      3.57211700     -0.02812200
O           5.49179800      3.35592200      0.94213600
H           3.27147700      0.73040500      1.65549400
H           2.25189700      1.24575900      3.02422300
H           1.87479200      1.79708000      1.36628600
H           2.97974700      3.63355800      2.68366700
H           4.40442800      2.60623200      2.96708600
H           5.73647100      3.67560500      0.05311300
