19
b3lypvdz=-307.052593188398 
C           2.70957300     -1.94210900     -1.71421600
N           2.23543500     -0.71825400     -1.08928900
C           0.90680400     -0.60565900     -0.76318300
N           0.39477100      0.44795700     -0.23501300
C           3.13860500      0.41561600     -0.90537800
C           4.12546800      0.26432800      0.26278900
C           3.46477500      0.06806600      1.62964700
H           2.58481000     -2.82469800     -1.06148900
H           2.19702700     -2.14950200     -2.67228300
H           3.78321900     -1.84323600     -1.92882600
H           0.34468000     -1.52554600     -1.01363800
H          -0.60756700      0.30244500     -0.08741100
H           2.49191200      1.28992600     -0.74533000
H           3.70512200      0.57570500     -1.84151100
H           4.76304800      1.16752000      0.27570300
H           4.81071500     -0.58023000      0.05652700
H           2.76362500      0.88591900      1.85901000
H           4.22393100      0.02225500      2.42762800
H           2.88464800     -0.86900200      1.66106300
