13
b3lypvdz=-228.494272470115 
N           2.17547500     -0.77406900     -1.05218300
C           0.84785400     -0.63325100     -0.72971300
N           0.42598900      0.49770200     -0.28160600
C          -0.00027800     -1.87076700     -0.97240600
C           3.12157000      0.30184100     -0.84103600
H           2.52691900     -1.69822600     -1.25414300
H          -0.58639300      0.45121900     -0.12550800
H           0.57240200     -2.71197100     -1.39389800
H          -0.46210800     -2.20666900     -0.02980400
H          -0.81510200     -1.63234400     -1.67388700
H           3.24993300      0.54460300      0.22994100
H           2.76043400      1.21838500     -1.33339000
H           4.09390500      0.01664600     -1.26816800
