16
b3lypvdz=-362.870870198085 
C           3.54525900      0.33956300      1.70970300
C           2.70604200      1.57560400      2.04796800
C           3.50164300      2.88600900      2.29527600
C           4.11522300      3.36608000      0.98828300
O           3.58196800      4.12509900      0.21064800
O           5.32884400      2.81349100      0.75091400
N           2.70883600      3.98855600      2.83595100
H           4.10268200      0.45943000      0.76740000
H           4.28605700      0.13239300      2.50039100
H           2.90120300     -0.54917800      1.61339600
H           2.13109500      1.38077900      2.97171900
H           1.95985300      1.76864100      1.25542700
H           4.32796400      2.66297200      2.99247200
H           5.60781600      3.15143200     -0.12132100
H           2.09406700      3.63223000      3.57031600
H           2.10205100      4.34479900      2.09295600
