13
b3lypvdz=-228.491785115813 
C          -0.90572500     -0.11682900      0.11803300
N          -1.31406700     -1.26692700     -0.27833500
N          -1.68851700      0.72221900      0.87142300
C          -3.10282400      0.45408100      1.10038100
C          -3.99687600      0.71377000     -0.11579300
H           0.10197300      0.30112600     -0.06983100
H          -0.55239700     -1.74637800     -0.76661200
H          -1.38438400      1.68612000      0.93368400
H          -3.42196400      1.07375500      1.95489400
H          -3.18911600     -0.60052400      1.40447500
H          -5.05353100      0.50901300      0.12902000
H          -3.70155500      0.05883400     -0.94936200
H          -3.92131700      1.76354100     -0.45167800
