12
b3lypvdz=-194.23411078423 
C           0.32444800     -3.17274300     -0.24140300
C           1.39431600     -3.95665100     -1.00020500
O           1.77642500     -5.16054800     -0.33995000
C          -0.06012400     -1.85117900     -0.91516800
H           0.69139400     -2.98340000      0.78359700
H          -0.57512500     -3.81113500     -0.13922700
H           2.31645300     -3.35522600     -1.07715400
H           1.05147500     -4.16816200     -2.03624900
H           0.98290000     -5.71073000     -0.27088000
H           0.81126300     -1.17837400     -0.99666100
H          -0.83623000     -1.32239600     -0.33876700
H          -0.45629500     -2.01755500     -1.93243400
