10
b3lypvdz=-189.203365372801 
N          -1.31182700     -1.26330700     -0.25989200
N          -1.68260800      0.72798200      0.87883800
C          -3.09315300      0.45164600      1.08439700
C          -0.89833200     -0.11349400      0.12980100
H          -0.55133900     -1.74960100     -0.74424900
H          -1.38967200      1.69580200      0.92168300
H          -3.68896500      0.54403400      0.15560800
H          -3.49134000      1.14770000      1.83716400
H          -3.21269300     -0.57813700      1.45252200
H           0.11033100      0.30257500     -0.05677200
