8
b3lypvdz=-133.870699911332 
C          -0.06465900     -1.89510600     -0.94254700
C           0.81214100     -0.69742600     -0.68578800
N           0.51567300      0.38855000     -0.09145000
H           0.37230900     -2.79694100     -0.47877200
H          -1.08003100     -1.74457200     -0.54134600
H          -0.13133900     -2.09694400     -2.02661000
H           1.84567100     -0.78030200     -1.06992100
H          -0.46896500      0.35504100      0.22213400
