6
b3lypvdz=-115.656614724104 
C           1.41067600     -3.97280900     -1.00081100
O           1.75560000     -5.17723000     -0.33305400
H           0.72670100     -3.32894900     -0.41082500
H           2.34658100     -3.41250900     -1.15465900
H           0.95063000     -4.14736200     -1.99554500
H           0.93601100     -5.67044200     -0.18840600
