15
b3lypvdz=-233.52355346413 
C           0.34289000     -3.15221100     -0.29030200
C           1.41712200     -3.96722400     -1.01781400
C           2.78122900     -3.26420700     -1.13199900
C           2.72665500     -1.91721900     -1.84495400
O           3.34328300     -3.00630300      0.16297900
H           0.05888900     -2.25190400     -0.85985900
H           0.71095100     -2.81947600      0.69347500
H          -0.57173800     -3.74816800     -0.13903400
H           1.57670700     -4.92742200     -0.48890200
H           1.06706700     -4.24189100     -2.03033200
H           3.45548600     -3.93287500     -1.70930300
H           2.14863700     -1.18914200     -1.25417600
H           2.25548700     -2.01616200     -2.83686900
H           3.74167600     -1.51143600     -1.97690800
H           3.44685900     -3.86075800      0.60739800
