10
b3lypvdz=-189.203297235304 
C           3.13492100      0.35755000     -0.89211800
N           2.23008600     -0.74724200     -1.14572500
C           0.93842400     -0.73149000     -0.69326100
N           0.42955800      0.30553800     -0.13343600
H           3.40113900      0.45585800      0.17779000
H           2.65777900      1.30051300     -1.19929600
H           4.05461100      0.21324600     -1.47768300
H           2.62895000     -1.64145800     -1.39581400
H           0.40795200     -1.68242000     -0.89331700
H          -0.55332000      0.12410600      0.08965900
