13
b3lypvdz=-228.492933893621 
C           0.27968200     -3.23280700     -0.31596200
C          -0.82084400     -0.00244000      0.17881700
N          -1.07924200     -1.17629200     -0.24204700
C          -0.02277800     -1.87595700     -0.95543400
N          -1.70010300      0.72490200      0.96031400
H           1.04326700     -3.77922500     -0.89465400
H           0.65283600     -3.10796000      0.71472400
H          -0.63321100     -3.84924200     -0.27482400
H           0.14562700      0.51446800      0.00361500
H           0.91023100     -1.27120100     -1.01374300
H          -0.36504900     -2.04610200     -1.99462900
H          -2.64885200      0.35610800      0.96562200
H          -1.65386600      1.73484900      0.87130200
