15
b3lypvdz=-287.615920965349 
C           0.36774700     -3.18652800     -0.24412400
C           1.39005500     -4.01477300     -1.02291900
C          -0.98496500     -0.05327200      0.16897400
N          -1.12405700     -1.23084700     -0.27986400
C           0.02631700     -1.85528700     -0.91963200
O           1.74948500     -5.22066600     -0.36066700
H           0.75340900     -2.99779600      0.77348700
H          -0.56618600     -3.76836600     -0.13176700
H           2.33250500     -3.45152800     -1.13605500
H           1.00723600     -4.21686700     -2.04718800
H          -0.04066600      0.52655100      0.10063900
H          -1.83791100      0.43749100      0.66010100
H           0.91746100     -1.18880700     -0.92778700
H          -0.25953500     -2.04933200     -1.97099300
H           0.93490600     -5.72927100     -0.23350500
