14
b3lypvdz=-249.545854983709 
C           2.73227300     -3.29903900     -1.15993000
C           3.05624100     -1.89968900     -1.65826100
N           2.49786200     -0.90218200     -0.75696800
C           2.89067500      0.45899400     -1.08896300
O           3.34380400     -3.46144500      0.12234100
H           1.63392400     -3.41255900     -1.09725600
H           3.12277500     -4.04772600     -1.87782700
H           2.60933800     -1.77938900     -2.66318800
H           4.16068900     -1.80820700     -1.78561100
H           2.83479100     -1.13619000      0.17964000
H           3.99078000      0.63697500     -1.09635800
H           2.43478700      1.16727000     -0.37973200
H           2.51446000      0.71712200     -2.09475400
H           2.84770100     -4.12973500      0.61416800
