19
b3lypvdz=-347.998319839649 
C           0.46384000     -3.00150000     -0.21583400
C           1.41039400     -3.84351100     -1.08875800
C           2.84725200     -3.29053400     -1.19253400
C           2.96884700     -1.86667300     -1.69983900
C          -0.38980300     -2.00811200     -1.00849100
O           3.46108200     -3.34804700      0.09211000
O           1.60470400     -5.16265700     -0.54431800
H           1.04627400     -2.48806000      0.56822900
H          -0.22035600     -3.68729200      0.31983300
H           0.98767600     -3.93739300     -2.10970100
H           3.39658600     -3.96769600     -1.87834100
H           2.42694900     -1.15537900     -1.05744200
H           2.60646400     -1.77141200     -2.73523200
H           4.03044400     -1.57280800     -1.67167800
H           0.21996400     -1.26109800     -1.53905600
H          -1.07322700     -1.45261700     -0.34404500
H          -1.00971500     -2.53566400     -1.75458200
H           3.21892200     -4.22526200      0.43582300
H           0.78430100     -5.42038700     -0.10164400
