16
b3lypvdz=-267.769295088974 
C           3.11724500     -3.12060100     -1.23880700
C           2.47929300     -1.94213000     -1.98224600
N           2.10596300     -0.83203400     -1.11916600
C           0.79970800     -0.59395800     -0.77597700
N           0.45413700      0.42014200     -0.06780600
C           3.12202000      0.11959200     -0.69712500
H           2.41298400     -3.54804300     -0.50652900
H           4.02289700     -2.81188500     -0.69187300
H           3.40519600     -3.91288900     -1.94955300
H           1.57463000     -2.28603800     -2.51086600
H           3.16759900     -1.57338600     -2.76551700
H           0.11739200     -1.36922900     -1.17491700
H          -0.55692600      0.40335300      0.09189100
H           2.92791800      0.43996400      0.33720600
H           3.11313700      1.03027300     -1.32486200
H           4.11400800     -0.35063100     -0.76125300
