22
b3lypvdz=-292.215368931451 
C           0.04813300     -3.16754000     -0.67411400
C           1.24072600     -3.88697500     -1.31232900
C           2.63124700     -3.54881800     -0.74669500
C           3.16247000     -2.14109900     -1.04804300
N           2.49196100     -1.09829600     -0.27081800
C           2.83840900      0.27527500     -0.64351200
C           4.31260200      0.68163100     -0.50027800
H           0.14129400     -2.07563800     -0.76753800
H          -0.02533900     -3.40122300      0.40328000
H          -0.89463600     -3.49128300     -1.14717700
H           1.09287800     -4.97890000     -1.21255700
H           1.24907300     -3.68038800     -2.40058800
H           2.64879500     -3.71676800      0.34859600
H           3.35616900     -4.26819000     -1.16870300
H           2.99418200     -1.91409600     -2.11880000
H           4.26573100     -2.14717900     -0.90020900
H           2.70586800     -1.23797000      0.72041300
H           2.21397500      0.94835900     -0.03159500
H           2.51517100      0.42528200     -1.69008800
H           4.66333900      0.53770600      0.53765200
H           4.45278100      1.74532100     -0.75899000
H           4.96907400      0.09398800     -1.16100800
