13
b3lypvdz=-228.491223355622 
C           2.70841000     -1.90816500     -1.87055500
N           2.14177700     -0.79821800     -1.13781400
C           0.83980500     -0.67894700     -0.70520300
N           0.48808900      0.41685300     -0.12821000
C          -0.04739100     -1.88487900     -0.95070100
H           2.60516800     -2.86545600     -1.32850200
H           2.26486800     -2.03880300     -2.87750600
H           3.78432900     -1.72565800     -2.00736600
H           2.70694300      0.02751000     -0.97902300
H          -0.49559700      0.35900500      0.15075300
H           0.33609500     -2.77237900     -0.41954600
H          -1.06611300     -1.67913400     -0.59507400
H          -0.09488300     -2.14412900     -2.02185300
