22
b3lypvdz=-292.211383298713 
C           3.11336800     -3.07397600     -1.07904100
C           2.56981300     -1.91845000     -1.93561700
N           2.14758600     -0.69921700     -1.25630000
C           3.15416700      0.29605900     -0.90203900
C           4.00106400      0.07795700      0.37352900
C           3.22165400      0.15428500      1.69808000
C           2.77463300      1.57073800      2.07748700
H           2.37685500     -3.38180100     -0.31635100
H           4.04484700     -2.80636000     -0.55542000
H           3.32323900     -3.95424100     -1.71151000
H           1.70917200     -2.29944100     -2.51781600
H           3.32925000     -1.62712100     -2.68329800
H           1.51688100     -0.90018700     -0.48080800
H           2.64498600      1.27534000     -0.82844400
H           3.83886200      0.38215500     -1.76457300
H           4.80360900      0.84057600      0.39173300
H           4.51192000     -0.89690600      0.30503200
H           3.85481100     -0.25304300      2.50627200
H           2.34155900     -0.51509900      1.65188500
H           3.64478400      2.24122700      2.18491000
H           2.22638300      1.57766900      3.03426900
H           2.10965800      2.01493700      1.31792100
