15
b3lypvdz=-287.638210938939 
C          -4.00067200      0.71400300     -0.14039100
C          -5.47467100      0.49932900      0.20900000
C          -6.49692000      0.82271400     -0.92010200
C          -6.18198900     -0.03099500     -2.13846100
O          -6.82177800     -1.01281600     -2.44683700
N          -7.88814800      0.62079000     -0.54340000
H          -3.36469300      0.56356400      0.74625800
H          -3.64886400      0.01246400     -0.91313500
H          -3.81747300      1.73691000     -0.51294200
H          -5.74633400      1.13962100      1.06737000
H          -5.64664000     -0.54379400      0.53055000
H          -6.33588800      1.87900900     -1.21766500
H          -5.29436000      0.28920200     -2.73903800
H          -8.01909900      0.84395500      0.44435900
H          -8.10727000     -0.37265500     -0.65506700
