16
b3lypvdz=-267.775571339936 
C           1.57807200     -4.01471600     -0.85776300
C           2.87855700     -3.32805400     -1.27852600
C           2.66516900     -1.91566200     -1.85295800
N           2.09907900     -0.96877800     -0.91240300
C           0.80313300     -0.52793600     -0.91066400
N           0.35647300      0.27470900     -0.01571200
H           1.03942800     -3.41810900     -0.10397000
H           1.77209200     -5.00798000     -0.42168600
H           0.90346700     -4.15169900     -1.72082800
H           3.56810400     -3.26854000     -0.41596600
H           3.39839300     -3.93456600     -2.04271700
H           1.98479400     -1.97088700     -2.72041300
H           3.62355400     -1.52349000     -2.23903100
H           2.67752600     -0.62206700     -0.15277300
H           0.22268000     -0.94256300     -1.75850900
H          -0.62622100      0.49033800     -0.20688000
