20
b3lypvdz=-328.121308873043 
C           1.28894600     -3.76535900     -1.24874500
C           2.76269800     -3.46239000     -1.03109800
C           3.15473500     -2.04018300     -1.46124200
N           2.36281900     -1.07431900     -0.71718500
C           2.83790800      0.30769300     -0.79100600
C           4.20067500      0.56344300     -0.13353600
O           3.11217600     -3.59359600      0.34891300
H           0.65204500     -3.02594700     -0.75533600
H           1.04886300     -4.76860000     -0.87125800
H           1.05576700     -3.75150300     -2.32302800
H           3.37051600     -4.16041600     -1.63064500
H           2.96242000     -1.92292600     -2.54076100
H           4.25180700     -1.97241300     -1.32575000
H           2.34832200     -1.37842200      0.26091900
H           2.08696400      0.93163600     -0.29158900
H           2.84369700      0.63942200     -1.84483200
H           4.15544200      0.34331500      0.94438900
H           4.51927900      1.60473900     -0.26012500
H           4.98809600     -0.07104900     -0.55961600
H           2.80002500     -4.45522600      0.66643100
