5
b3lypvdz=-189.683756743799 
C           4.14652700      3.31082900      0.92281000
O           3.46316400      3.65389300     -0.00566700
O           5.49348100      3.30220000      0.92946900
H           3.77291800      2.95145800      1.90427500
H           5.77251000      3.63562000      0.05441300
