13
b3lypvdz=-228.501062796193 
C           0.40164700     -3.16869700     -0.28876100
N           2.13082300     -0.83753700     -1.10988300
C           0.81443800     -0.66597100     -0.69786300
N           0.48779700      0.43041700     -0.11746900
C          -0.08950400     -1.86599700     -0.94394500
H           1.38932100     -3.46592200     -0.67526600
H           0.49310800     -3.05176000      0.80382600
H          -0.30126200     -3.99408500     -0.48738500
H           2.28360000     -1.40703800     -1.93593900
H           2.66076100      0.03044200     -1.10711600
H          -0.48586600      0.37664900      0.20018200
H          -1.09643300     -1.61133200     -0.57747200
H          -0.18003200     -2.02316900     -2.03641000
