16
b3lypvdz=-213.642003567732 
C           2.76093200     -3.18540600     -1.07882300
C           2.77722300     -1.88947700     -1.89224800
N           2.18143400     -0.74219000     -1.19349200
C           3.07583500      0.36834400     -0.87840800
C           4.10815300      0.11942500      0.23179100
H           1.72877100     -3.46150600     -0.79865800
H           3.34721700     -3.08247700     -0.14956800
H           3.18322000     -4.02454900     -1.65684700
H           2.24188100     -2.06254100     -2.84680600
H           3.82109600     -1.64937200     -2.16974500
H           1.73245700     -1.06564200     -0.33556900
H           2.45337300      1.24027400     -0.60670800
H           3.59741300      0.64727100     -1.81192100
H           3.60154700     -0.12115900      1.18423800
H           4.74011600      1.00806500      0.40556900
H           4.77873300     -0.72175800     -0.01560600
