16
b3lypvdz=-213.651346821633 
N           2.20641600     -0.75550000     -1.09433200
C           3.14924000      0.35044800     -0.90198000
C           4.10158900      0.24533300      0.30455800
C           3.41691000      0.21815700      1.68022200
C           2.71014100      1.52784500      2.05164900
H           2.72533300     -1.63844300     -1.12552500
H           1.59317400     -0.83502000     -0.27948000
H           2.55431200      1.27925400     -0.84062000
H           3.75551200      0.44385800     -1.82077600
H           4.82479400      1.08383800      0.27314900
H           4.70190900     -0.67770500      0.18488300
H           4.17649500     -0.01750200      2.44644300
H           2.69211500     -0.61808200      1.71546500
H           3.41495100      2.37747900      2.01887000
H           2.28653400      1.47997200      3.06876400
H           1.87957500      1.76086800      1.36530900
