12
b3lypvdz=-194.239272685238 
C           1.42665100     -3.93960600     -1.02427300
C           2.79593100     -3.26490300     -1.13755800
C           2.73001600     -1.93146900     -1.86971400
O           3.33815000     -2.98780100      0.16012800
H           0.73289200     -3.29469200     -0.45878300
H           1.50391500     -4.90063700     -0.48491400
H           0.98964000     -4.14503000     -2.01635600
H           3.48456900     -3.93798100     -1.69302900
H           2.07630600     -1.22858500     -1.32658800
H           2.33535800     -2.06164300     -2.89060500
H           3.73061500     -1.47434300     -1.93504200
H           3.41785700     -3.83260900      0.62593600
