21
b3lypvdz=-308.252941313849 
N           2.17545000     -0.67759900     -1.07329200
C           3.15364600      0.39818800     -0.88802700
C           4.11829000      0.26305500      0.30574900
C           3.45003200      0.21904300      1.69230800
C           2.67366200      1.48336700      2.09844900
C           3.53152800      2.74781000      2.26712000
N           2.81560200      3.95903200      2.67615600
H           2.66730700     -1.57492000     -1.12157800
H           1.57318100     -0.74634700     -0.24957600
H           2.58833900      1.34511100     -0.82021000
H           3.75232200      0.47533200     -1.81324500
H           4.86076300      1.08157800      0.26643200
H           4.69907700     -0.66999900      0.17092700
H           4.22841200      0.01699400      2.45075400
H           2.76515400     -0.64813500      1.73455900
H           2.15211400      1.28773000      3.05502500
H           1.87529900      1.69271800      1.36109600
H           4.05852800      2.98191700      1.32476100
H           4.32429700      2.55157800      3.01297700
H           2.30717000      3.77300100      3.54600900
H           2.08722400      4.16494500      1.98740400
