10
b3lypvdz=-189.201840471726 
N          -1.65591200      0.70669200      0.95492000
C          -3.07968500      0.46631500      1.07092500
N           0.30281200      0.29811800     -0.22488700
C          -0.82804700     -0.10644800      0.21881900
H          -1.35043800      1.67708300      0.97606600
H          -3.66293500      0.79020400      0.18504900
H          -3.48065600      0.99580500      1.94876200
H          -3.26261500     -0.60999200      1.22064100
H           0.79230200     -0.47794900     -0.68015200
H          -1.24112600     -1.12752700      0.09865800
