12
b3lypvdz=-248.354876014782 
C          -5.45711600      0.53326500      0.16690600
C          -6.51755400      0.81175100     -0.92208900
C          -6.19805900     -0.06121100     -2.11973400
O          -6.89016800     -0.97458600     -2.50586900
N          -7.89962800      0.62144700     -0.51548300
H          -4.43101100      0.68764600     -0.21149000
H          -5.60413300      1.21459300      1.02021900
H          -5.54356200     -0.50329100      0.53544600
H          -6.36725900      1.85793500     -1.26570900
H          -5.22469300      0.18164200     -2.62174300
H          -8.00844700      0.78864800      0.48470700
H          -8.17137000     -0.34664000     -0.69956200
