14
b3lypvdz=-158.333899693797 
C           4.09654800      0.22980600      0.36223500
C           3.42051100      0.24401200      1.74035100
C           2.65707300      1.53997400      2.06084500
C           3.54340200      2.78448800      2.19495300
H           3.36062800      0.41132300     -0.44077400
H           4.88211100      0.99920500      0.27819800
H           4.57394600     -0.74495500      0.16478200
H           4.18091800      0.06672600      2.52377200
H           2.71373600     -0.60391900      1.80256000
H           2.09958500      1.39648200      3.00440300
H           1.89393100      1.71657600      1.27906500
H           4.04269100      3.04088200      1.24537700
H           2.94656400      3.66020500      2.50052200
H           4.32995800      2.63329700      2.95451000
