7
b3lypvdz=-153.749816329251 
C           4.14088000      3.30034700      0.93989600
O           3.50235600      3.65500200     -0.02183000
C           3.54444000      2.83206800      2.24505300
H           5.26567800      3.31897100      0.91257100
H           3.88544100      1.80380900      2.46206500
H           2.44568400      2.86487300      2.19980200
H           3.90942000      3.46872900      3.06994300
