16
b3lypvdz=-271.602934183875 
C          -3.09126000      0.47106000      1.09665400
C          -4.00734200      0.70254300     -0.10701600
C          -5.48920300      0.47980000      0.22199300
C          -6.46102000      0.80514500     -0.93267000
C          -6.18948900     -0.03984500     -2.16021700
O          -6.71140100     -1.11074800     -2.37342600
H          -2.03406700      0.63462900      0.83049200
H          -3.34012000      1.15598100      1.92486000
H          -3.18622100     -0.56006600      1.47972300
H          -3.70296700      0.02673000     -0.92668600
H          -3.86429500      1.73189800     -0.48620800
H          -5.76825900      1.09859300      1.09330600
H          -5.64511200     -0.57141300      0.52470400
H          -7.49586000      0.60735200     -0.60893100
H          -6.37288300      1.87222200     -1.20833100
H          -5.43810000      0.38051900     -2.88304600
