19
b3lypvdz=-307.066943656187 
C           0.52614600     -3.23002200     -0.60053800
N           2.17163100     -0.86799800     -1.07347600
C           0.90919000     -0.64401600     -0.57793800
N           0.60405300      0.52718400     -0.13500200
C          -0.06712000     -1.81721100     -0.68552100
C           3.22218200      0.13824800     -0.98875700
C           3.81078900      0.33186900      0.41532600
H           1.17030600     -3.46187300     -1.46679700
H           1.12541800     -3.36907000      0.31477900
H          -0.27656500     -3.98479000     -0.59686000
H           2.46302900     -1.82629300     -1.20443200
H          -0.38103300      0.54137900      0.14648600
H          -0.81678500     -1.68234200      0.11161800
H          -0.61163900     -1.71145200     -1.64214600
H           2.79243100      1.08829700     -1.34235800
H           4.01230000     -0.15529300     -1.70048200
H           3.02539100      0.66905600      1.10765100
H           4.60938400      1.09305900      0.39554300
H           4.24619200     -0.60673400      0.80050200
