19
b3lypvdz=-307.057847867528 
C           0.32827800     -3.15422200     -0.23468000
C           1.34656000     -3.99673900     -1.00784600
C          -0.81673800      0.02772400      0.20023200
N          -1.09113500     -1.13313000     -0.25665100
C          -0.02841900     -1.84367500     -0.94445600
N          -1.70339500      0.76783700      0.94396500
C          -3.09805000      0.37591400      1.05222200
H           0.72163500     -2.91303600      0.77013800
H          -0.60217000     -3.72724500     -0.07615700
H           2.28170700     -3.43673700     -1.18590400
H           1.61007800     -4.91566000     -0.45961400
H           0.95001700     -4.30040300     -1.99290300
H           0.16896400      0.52167000      0.07218900
H           0.89256300     -1.22302500     -1.04694600
H          -0.37326000     -2.08229700     -1.97020700
H          -1.49581600      1.75478300      1.02927400
H          -3.64773900      0.46857100      0.09498100
H          -3.59374100      0.99971600      1.81059300
H          -3.15623800     -0.67714600      1.36566900
