7
b3lypvdz=-95.792484708062 
C           2.73617500     -1.91629000     -1.86981700
N           2.22188200     -0.73985600     -1.16183900
H           3.07543800     -2.76000900     -1.23005100
H           1.95709600     -2.30710400     -2.54637100
H           3.58827800     -1.61696500     -2.50344500
H           1.43856100     -1.01961500     -0.56637000
H           2.93646900     -0.39876100     -0.51470700
