13
b3lypvdz=-269.427190539249 
C           0.36049600     -3.17870800     -0.28040400
C           1.42643600     -3.97184100     -1.03168000
C           2.76976000     -3.23960500     -1.08595000
O           3.30307200     -3.04632000      0.21184100
O           1.73181800     -5.21029000     -0.36884400
H           0.09247800     -2.26273000     -0.83279400
H           0.74476500     -2.88218800      0.70759100
H          -0.56218300     -3.77023200     -0.15232500
H           1.08254100     -4.17114300     -2.06842700
H           2.64141100     -2.24123700     -1.53567800
H           3.45842800     -3.81642100     -1.73539800
H           3.28454200     -3.92691400      0.62244800
H           0.89803700     -5.65847100     -0.16768000
