10
b3lypvdz=-230.135427151626 
C           1.45116300     -3.98236800     -1.02745000
C           2.77899100     -3.24594800     -1.10814800
O           3.30910000     -3.02201600      0.18451100
O           1.73347200     -5.22496800     -0.38285800
H           0.74156300     -3.37512400     -0.43226300
H           1.02177800     -4.13135200     -2.03911700
H           2.63979900     -2.26229900     -1.58600800
H           3.47206600     -3.83333400     -1.74672600
H           3.27989300     -3.88949800      0.62050600
H           0.89697600     -5.62729400     -0.11154900
