62
b3lypvdz=-1161.582147895427 
     C     -8.35217800     15.88238500      0.00000000
     C     -8.32771800     14.53469700      0.00000000
     C     -7.12235800     13.73390200      0.00000000
     C     -7.10804300     12.37234000      0.00000000
     C     -5.91730400     11.56887000      0.00000000
     C     -5.90898700     10.20254400      0.00000000
     C     -4.72427000      9.39734700      0.00000000
     C     -4.71921600      8.02875900      0.00000000
     C     -3.53791900      7.22213400      0.00000000
     C     -3.53519600      5.85232200      0.00000000
     C     -2.35605500      5.04452600      0.00000000
     C     -2.35497700      3.67403300      0.00000000
     C     -1.17715100      2.86539500      0.00000000
     C     -1.17706900      1.49455400      0.00000000
     C      0.00012600      0.68547400      0.00000000
     C     -0.00012500     -0.68547400      0.00000000
     C      1.17707000     -1.49455300      0.00000000
     C      1.17715200     -2.86539400      0.00000000
     C      2.35497800     -3.67403300      0.00000000
     C      2.35605600     -5.04452500      0.00000000
     C      3.53519700     -5.85232200      0.00000000
     C      3.53792000     -7.22213300      0.00000000
     C      4.71921700     -8.02875800      0.00000000
     C      4.72427100     -9.39734600      0.00000000
     C      5.90898800    -10.20254400      0.00000000
     C      5.91730500    -11.56887000      0.00000000
     C      7.10804400    -12.37233900      0.00000000
     C      7.12235900    -13.73390100      0.00000000
     C      8.32771900    -14.53469600      0.00000000
     C      8.35217900    -15.88238400      0.00000000
     H     -7.42769100     16.46809100      0.00000000
     H     -9.29344300     16.43596100      0.00000000
     H     -9.27722500     13.98502800      0.00000000
     H     -6.16682100     14.27325900      0.00000000
     H     -8.06698900     11.83842700      0.00000000
     H     -4.95688800     12.09944000      0.00000000
     H     -6.87074300      9.67399400      0.00000000
     H     -3.76172300      9.92415900      0.00000000
     H     -5.68260100      7.50326100      0.00000000
     H     -2.57401600      7.74651400      0.00000000
     H     -4.49965400      5.32883400      0.00000000
     H     -1.39124700      5.56727200      0.00000000
     H     -3.32013300      3.15185600      0.00000000
     H     -0.21178800      3.38713700      0.00000000
     H     -2.14260100      0.97309100      0.00000000
     H      0.96572800      1.20679300      0.00000000
     H     -0.96572700     -1.20679300      0.00000000
     H      2.14260200     -0.97309000      0.00000000
     H      0.21178900     -3.38713700      0.00000000
     H      3.32013400     -3.15185500      0.00000000
     H      1.39124800     -5.56727200      0.00000000
     H      4.49965500     -5.32883300      0.00000000
     H      2.57401700     -7.74651300      0.00000000
     H      5.68260200     -7.50326100      0.00000000
     H      3.76172400     -9.92415800      0.00000000
     H      6.87074400     -9.67399300      0.00000000
     H      4.95688900    -12.09944000      0.00000000
     H      8.06699000    -11.83842600      0.00000000
     H      6.16682200    -14.27325800      0.00000000
     H      9.27722600    -13.98502700      0.00000000
     H      7.42769200    -16.46809000      0.00000000
     H      9.29344400    -16.43596100      0.00000000
