16
b3lypvdz=-309.418618292594 
     C     -0.06254900     -0.49560500      0.01933000
     C      0.26820700      0.96872100     -0.00000800
     C     -1.32851000     -0.98312800      0.03263400
     C     -0.66485500      1.95283000     -0.01044700
     C      1.06504700     -1.42948800      0.02493100
     C      1.68646900      1.33303200     -0.00858800
     C      2.35409000     -1.01196100      0.01517000
     C      2.67316400      0.40608600     -0.00197100
     H     -1.50859800     -2.06063700      0.04702500
     H     -0.35992700      3.00222600     -0.02427900
     H      0.82928500     -2.49782500      0.03886300
     H      1.92996800      2.39936800     -0.02240700
     H      3.17253900     -1.73668400      0.02058700
     H      3.72221600      0.71391200     -0.01009200
     H     -2.21066500     -0.34118900      0.03108700
     H     -1.73818100      1.75264200     -0.00663300
