14
b3lypvdz=-233.234038088336 
     C     -0.02051000     -0.62392000      0.01441600
     C      0.27663100      0.69313200      0.00378600
     C     -0.76365300      1.75171200     -0.00010100
     C      1.67053800      1.20199800     -0.00514000
     C     -2.09587100      1.60582500      0.00245800
     C      2.81156900      0.49846100     -0.00600200
     H     -0.37179800      2.77605400     -0.00633100
     H      1.75588300      2.29569800     -0.01237800
     H     -2.74783900      2.48246400     -0.00115000
     H      3.77533500      1.01268600     -0.01337300
     H     -1.05088800     -0.98403400      0.02134100
     H      0.75532400     -1.39226200      0.01737700
     H     -2.58773000      0.62897600      0.00804500
     H      2.83870900     -0.59589000      0.00035200
