6
b3lypvdz=-78.53307676637 
     C      0.02449500     -0.42795900      0.01818900
     C      0.31760500      0.87345900      0.00098000
     H     -1.01228900     -0.77978000      0.02685900
     H      0.81057500     -1.18987500      0.02484600
     H     -0.46847500      1.63537400     -0.00568100
     H      1.35438900      1.22528000     -0.00769300
