14
b3lypvdz=-233.245396362373 
     C      0.39648600      0.86227600      0.00025600
     C     -0.66621700      1.70148000     -0.00656700
     C      1.77648200      1.31325900     -0.01257200
     C     -2.61707900      0.10116300      0.02514500
     C     -2.08572600      1.33711100      0.00547300
     C      2.84319400      0.49165200     -0.00573900
     H     -0.46796400      2.78042200     -0.02323200
     H      1.94201100      2.39783300     -0.02926500
     H     -3.70083000     -0.03900800      0.03275200
     H     -2.77694200      2.18789500     -0.00288500
     H      3.86091900      0.88945800     -0.01603700
     H      0.24058500     -0.22337300      0.01695600
     H     -2.00450000     -0.80480100      0.03485500
     H      2.73128100     -0.59776700      0.01066000
