10
b3lypvdz=-155.885220010829 
     C      2.30017200     -1.00772100      0.01635600
     C      2.61947700      0.42871500      0.00004900
     C      1.08163500     -1.57190400      0.02378400
     C      1.75435300      1.45514500     -0.00963200
     H      3.17095500     -1.67347600      0.02326200
     H      3.69023300      0.66480000     -0.00449000
     H      0.97021500     -2.65903900      0.03641400
     H      2.11675900      2.48601700     -0.02172700
     H      0.16026400     -0.98267600      0.01823700
     H      0.66913700      1.31174000     -0.00625300
