20
b3lypvdz=-684.451594561941 
O          -0.72494600      1.37499000      0.25674600
O           1.99542400      2.08622500      0.07754900
O           2.62227200     -1.40167000     -0.68367100
O           0.26719600     -2.05093400      0.54645100
O          -2.60318400     -1.68706000     -0.19285700
O          -2.93885300      1.30743500     -0.31830500
C           0.34413900      0.41074300      0.57726800
C           1.56848300      0.77298600     -0.26678400
C          -0.30475600     -0.97442900      0.38708000
C           2.76580300     -0.16378100     -0.03451800
C          -1.67581100     -0.71394300      0.03452600
C          -1.82141000      0.64290100     -0.01874000
H           0.58675700      0.56991400      1.64124900
H           1.29260500      0.69418800     -1.33726000
H           3.64062200      0.34603700     -0.46848300
H           2.95390600     -0.26131900      1.05530600
H           1.25503200      2.68691300     -0.09504600
H           1.92932400     -1.89615200     -0.20181800
H          -3.38876500     -1.27630900     -0.58568900
H          -2.74097400      2.25934000     -0.33539600
