10
b3lypvdz=-155.891410286461 
     C      7.10287600    -12.38475900      0.00000100
     C      7.11968100    -13.72862800      0.00000100
     C      8.33744500    -14.53145500     -0.00000100
     C      8.35428600    -15.87532300     -0.00000100
     H      8.02842800    -11.79956600      0.00000100
     H      6.16820900    -14.27497000      0.00000100
     H      9.28890100    -13.98509900     -0.00000100
     H      7.42872200    -16.46049300     -0.00000100
     H      9.29571300    -16.43065100      0.00000200
     H      6.16143900    -11.82945500     -0.00000200
