6
b3lypvdz=-78.533114621502 
     C     -8.35206700     15.87529100      0.00000000
     C     -8.32783300     14.54180900      0.00000000
     H     -7.42827500     16.46296900      0.00000000
     H     -9.29669700     16.42901400     -0.00000000
     H     -9.25162500     13.95413100      0.00000000
     H     -7.38320300     13.98808600     -0.00000000
