18
b3lypvdz=-310.611719125708 
     C      4.70532800     -8.04744100     -0.00000000
     C      4.71495000     -9.39436400     -0.00000100
     C      5.92024800    -10.20222500      0.00000300
     C      5.92507100    -11.56015400     -0.00000100
     C      7.12416100    -12.36747000      0.00000300
     C      7.12896700    -13.72539500      0.00000500
     C      8.33425000    -14.53330000     -0.00000200
     C      8.34384700    -15.88021900     -0.00000100
     H      5.63348000     -7.46687300      0.00000500
     H      3.75923000     -9.93305400     -0.00000800
     H      6.87598200     -9.66294700      0.00000900
     H      4.96790000    -12.09706600     -0.00000600
     H      8.08133400    -11.83056000      0.00000300
     H      6.17324700    -14.26469400      0.00001100
     H      9.28995500    -13.99458600     -0.00001400
     H      7.41568700    -16.46077500      0.00000800
     H      9.28229700    -16.43984700     -0.00000800
     H      3.76686600     -7.48783400     -0.00000700
