51
b3lypvdz=-854.814203327768 
O          -8.67264200      1.54445700     -0.04719600
C           4.58643200     -0.81201400      0.29547900
C           5.96035700     -0.10869000      0.18360000
C           5.92998100      1.33687600      0.66476000
C           3.42957100      0.12835000     -0.13938400
C           4.96578300      2.13217500     -0.20803400
C           3.64123600      1.43929300     -0.44644800
C           4.36572900     -1.29252300      1.74864900
C           4.64651200     -2.05134000     -0.63097600
C           2.10973100     -0.52092000     -0.22745900
C           2.62025100      2.35248400     -1.08191800
C           0.89179400      0.02370300      0.03450400
C          -0.38821900     -0.66714700     -0.06420600
C          -0.38213700     -2.14656700     -0.36474500
C          -1.54229000      0.05177200      0.10961000
C          -2.89418300     -0.43502000     -0.01265300
C          -4.01071600      0.32348800      0.16313300
C          -5.38647300     -0.15046800      0.02619100
C          -5.59273300     -1.58842400     -0.39313800
C          -6.41448200      0.69175400      0.30361500
C          -7.88983300      0.39634100      0.26667200
H           6.28365400     -0.11670300     -0.87340800
H           6.70639600     -0.69824300      0.74390600
H           6.93807000      1.78175100      0.62362700
H           5.60374200      1.38378600      1.71899400
H           5.43346200      2.35673800     -1.18843800
H           4.76060200      3.12183800      0.24201300
H           4.45329700     -0.46304000      2.46820200
H           3.36660700     -1.73866300      1.87776000
H           5.11256700     -2.05791000      2.01877400
H           5.56332600     -2.62801100     -0.42136500
H           3.79819100     -2.73761800     -0.48620300
H           4.67155400     -1.74852600     -1.69095400
H           2.12707800     -1.57942400     -0.49985100
H           2.12728800      3.00695300     -0.33808400
H           1.83390800      1.80778400     -1.62112000
H           3.12992800      3.02844600     -1.79157100
H           0.83183800      1.06598600      0.35837100
H          -1.37251000     -2.60496100     -0.25429700
H          -0.02574700     -2.34970000     -1.38986400
H           0.30194500     -2.67746400      0.31714000
H          -1.43685500      1.11730900      0.34862100
H          -3.02161500     -1.48521600     -0.28500600
H          -3.89132000      1.37782700      0.44103700
H          -5.04262400     -1.81428600     -1.32211500
H          -6.64993300     -1.83505100     -0.55382700
H          -5.20802500     -2.27699600      0.37878400
H          -6.17907500      1.70852500      0.64334700
H          -8.24083600      0.08064600      1.26666600
H          -8.11950100     -0.43785000     -0.42382600
H          -8.36944400      1.87032300     -0.90827100
