18
b3lypvdz=-289.780574776548 
N           3.22640300     -2.37401500     -0.51468200
C           0.07426200     -0.01850300      0.27652300
C          -0.47639700      2.31377700     -0.35526600
C           0.39954000      1.38704900      0.07218000
C           0.90214800     -0.97226400      0.74952800
C           2.33655000     -0.80922900      1.18026300
C           3.19106800     -2.05525900      0.91436800
H           3.78645000     -3.21589100     -0.66590000
H           3.71388100     -1.62949700     -1.01949000
H          -0.95062000     -0.31082900      0.01910500
H          -1.51383900      2.05323600     -0.58845100
H          -0.17776400      3.35590900     -0.49258800
H           1.42374700      1.70384900      0.29552000
H           0.49643600     -1.98500800      0.86194500
H           2.38034900     -0.59776100      2.26713400
H           2.80158800      0.06149500      0.68678700
H           4.19101500     -1.89911800      1.37524600
H           2.73778500     -2.91534200      1.44097900
