17
b3lypvdz=-272.525673977496 
C          -1.94150800      0.93824100     -1.71301100
C          -0.08857300      0.01740800      0.64204100
C          -2.20655800     -0.20617800     -0.76589900
C          -1.35905000     -0.58123900      0.22959500
C           0.32934800      1.29294500      0.52442800
C          -3.45747300     -0.95514700     -1.00068900
C          -4.25013800     -1.49405000     -0.06072500
H          -0.86551500      1.12333100     -1.85159100
H          -2.39587500      0.74072600     -2.69807600
H          -2.39095700      1.87554900     -1.33696400
H           0.59430900     -0.68458900      1.13763500
H          -1.62106400     -1.49692500      0.77062000
H          -0.29243400      2.08677400      0.10702000
H           1.31993900      1.58215200      0.88513700
H          -3.77278300     -1.03851900     -2.04991100
H          -4.03392700     -1.38751500      1.00669200
H          -5.15364200     -2.04266700     -0.33890000
