14
b3lypvdz=-233.238962019858 
C          -0.02490700     -0.17612800      0.58056700
C          -1.41096900     -0.60727900      0.40184000
C           0.98284200     -0.88215800      1.12331800
C          -2.03928000     -1.59602200      1.08008300
C          -4.29448100     -1.61652800     -0.04516600
C          -3.41630600     -2.05214500      0.87599100
H           0.19987600      0.82918700      0.20548200
H          -1.98437900     -0.04097900     -0.34020000
H           1.98011600     -0.44799000      1.22521200
H           0.84797400     -1.90905200      1.47429700
H          -1.48266200     -2.11857000      1.86540800
H          -4.04636300     -0.82990400     -0.76340400
H          -5.29934300     -2.03960000     -0.10596400
H          -3.74381900     -2.84543300      1.55773500
