14
b3lypvdz=-233.245177309149 
C          -0.18768200      0.13466700      0.92343200
C          -1.49018500     -0.39891500      0.57591800
C           0.35327800      1.24378300      0.38596900
C          -2.02290900     -1.51426700      1.13036000
C          -4.25162800     -1.67635300     -0.03929200
C          -3.32266400     -2.11669300      0.82853600
H           0.37981600     -0.42610000      1.67697000
H          -2.05820100      0.15598500     -0.18064100
H          -0.18406800      1.83022000     -0.36597700
H           1.33783100      1.60576100      0.68903000
H          -1.42004900     -2.04299700      1.87817000
H          -4.12044800     -0.76185700     -0.62473300
H          -5.18411100     -2.22529200     -0.18673600
H          -3.53878000     -3.03894100      1.37959400
