14
b3lypvdz=-233.248030151057 
C          -0.47605600      0.34927400      1.18729500
C           0.16004800      1.90556700     -0.68705000
C          -1.60415100     -0.33107900      0.57008600
C           0.28886700      1.33022200      0.64134200
C           0.97546700      2.86536800     -1.16224300
C          -2.29834800     -1.31464600      1.17227500
H          -0.22367100      0.01339500      2.19963500
H          -0.63566700      1.52533200     -1.33636700
H          -1.90521000     -0.01899300     -0.43515400
H           1.10030100      1.73976500      1.25425200
H           1.78757300      3.27255300     -0.55158000
H           0.85923700      3.27120900     -2.16924300
H          -3.14183300     -1.80435000      0.68103400
H          -2.03465800     -1.66241600      2.17631700
