16
b3lypvdz=-234.461521679532 
C          -0.06719000     -0.29227900      0.59369200
C          -1.49911600     -0.58723100      0.45061300
C           0.86260900     -1.09286400      1.14496700
C           2.31981600     -0.75948000      1.28684100
C          -2.21840000     -1.46571500      1.16776700
C           3.24055700     -1.81935700      0.66489300
H           0.26114700      0.67148600      0.18475800
H          -2.01972500     -0.00157300     -0.31688700
H           0.55840000     -2.08051900      1.51666200
H           2.56447800     -0.67190900      2.36389800
H           2.52195200      0.23002500      0.84197200
H          -3.27827300     -1.63028300      0.95905600
H          -1.77506800     -2.05009000      1.97931800
H           3.06956900     -1.90928800     -0.42104100
H           4.30142900     -1.56454200      0.82565100
H           3.06311400     -2.81197900      1.11334100
