16
b3lypvdz=-309.46087314901 
C          -0.27692300      0.12235500      0.85615900
C          -2.37560400      0.01747800     -0.55803000
C          -1.57433000     -0.47057400      0.49517900
C           0.32776200      1.18025100      0.29552400
C          -3.59472200     -0.58099800     -0.86545300
C          -2.04766500     -1.57675500      1.22548900
C          -4.04803700     -1.68554800     -0.13212400
C          -3.27101400     -2.17788200      0.91891800
H           0.23568100     -0.38414700      1.68237300
H          -2.03646700      0.87593400     -1.14125000
H          -0.11610300      1.74007800     -0.53197700
H           1.29738100      1.52890200      0.65564200
H          -4.20015700     -0.18236000     -1.68313200
H          -1.43909700     -1.96883700      2.04515500
H          -5.00209100     -2.15541700     -0.38118700
H          -3.61541300     -3.03588200      1.50131500
