10
b3lypvdz=-135.081292246591 
N           2.87730100     -2.27336500     -0.62841400
C           2.31674400     -0.75247600      1.21811200
C           3.20098400     -1.90558400      0.75682700
H           3.48378400     -3.03868400     -0.93245500
H           3.11170100     -1.48851500     -1.24349000
H           1.25177300     -1.02079500      1.11814900
H           2.52026300     -0.49073300      2.27009100
H           2.49782500      0.15218300      0.61043100
H           4.26853700     -1.63162800      0.92116400
H           3.00488700     -2.78900300      1.39148500
