6
b3lypvdz=-78.533048787399 
C          -0.18192700     -0.12251800      0.62766400
C          -1.42437300     -0.53738200      0.37123600
H           0.16073900      0.87258300      0.32657100
H           0.53941000     -0.76485600      1.14306700
H          -2.14571000      0.10495600     -0.14416700
H          -1.76703900     -1.53248300      0.67232900
