13
b3lypvdz=-195.173857159042 
C          -1.91765300      0.89147300     -1.82257500
C          -0.15149100      0.00196400      0.68654900
C          -2.23019700     -0.12342300     -0.76486100
C          -1.47147400     -0.49749600      0.28510000
C           0.32855200      1.25181000      0.57163500
H          -0.84933000      1.15024200     -1.86031800
H          -2.23107200      0.51989400     -2.81346800
H          -2.47924000      1.82911200     -1.65383600
H           0.49210500     -0.74811200      1.16436400
H          -3.19078900     -0.63909200     -0.88081300
H          -1.86106200     -1.31190400      0.90785000
H          -0.27049100      2.07275500      0.17095800
H           1.33804200      1.49657700      0.91101600
