17
b3lypvdz=-272.536244310201 
C           0.00986700     -0.36521900      0.38015700
C          -2.28527200     -0.15526600     -0.53741900
C          -1.36409100     -0.79464400      0.22319500
C           0.92897000     -1.01355100      1.12527400
C           2.36203500     -0.60781100      1.27407900
C          -3.67600400     -0.55624800     -0.75272800
C          -4.29899100     -1.64105900     -0.25579500
H           0.30702300      0.54428000     -0.15814600
H          -1.97372100      0.75822000     -1.05740100
H          -1.65156600     -1.70743300      0.75834200
H           0.61794200     -1.91956200      1.66225300
H           3.04138200     -1.40011600      0.90865300
H           2.62833600     -0.44282400      2.33427000
H           2.58653700      0.31281000      0.71329300
H          -4.25362800      0.11721800     -1.39635900
H          -3.78438800     -2.35905300      0.38902600
H          -5.34393000     -1.85184300     -0.49199400
