18
b3lypvdz=-310.590999983278 
C          -0.33200300      0.05216400      0.80975900
C          -2.42404900     -0.01094300     -0.59864600
C           0.31338900      1.80963700     -0.83577700
C          -1.45680600     -0.54578200      0.34901600
C           0.23973700      1.36223400      0.43645000
C          -3.49999200     -0.69298300     -1.03256300
C           0.80561300      2.13748600      1.56884000
C           0.73501900      3.46655600      1.72169500
H           0.22031000     -0.47569400      1.59708700
H          -2.26684400      1.01175100     -0.95303400
H          -0.06244400      1.21746900     -1.67177100
H           0.79202700      2.76359800     -1.06759900
H          -1.70005000     -1.53158200      0.76250800
H          -3.69797000     -1.71914900     -0.70551500
H          -4.21894900     -0.24260800     -1.72094400
H           1.28892500      1.54088600      2.35329900
H           0.20987400      4.10123600      1.00160300
H           1.18811200      3.96042500      2.58519300
