18
b3lypvdz=-310.605571902225 
C          -0.68202300      0.21839200      1.41760300
C          -1.68975600     -0.44756000      0.79325300
C          -0.19718700      1.51341900      1.01332800
C          -2.17360000     -1.75529100      1.18491000
C           0.80304700      2.18768200      1.63723700
C           0.99967200      4.25055800      0.20683100
C          -3.19076200     -2.40247300      0.58387500
C           1.34996600      3.49016700      1.26094200
H          -0.18844600     -0.25396900      2.27631700
H          -2.18337400      0.02565600     -0.06484100
H          -0.68787100      1.96211200      0.14165300
H          -1.66226800     -2.22973400      2.03157900
H           1.26568500      1.71531000      2.51117400
H           0.22377000      3.94712000     -0.50185900
H           1.48719500      5.20965900      0.01973100
H          -3.72323200     -1.95833200     -0.26300100
H          -3.52225900     -3.38660500      0.92144900
H           2.13864100      3.86748900      1.92212100
