18
b3lypvdz=-310.5992250685 
C          -0.53445500      0.21513700      1.20142700
C          -2.38568500     -0.13241300     -0.44894100
C          -1.68004300     -0.49398900      0.65118100
C          -0.23079200      1.52472800      1.01442200
C          -3.55771500     -0.81087600     -1.00430800
C           0.94875400      2.16344000      1.56595100
C          -4.15565200     -1.92649400     -0.54794100
C           1.26582600      3.46038800      1.39324400
H           0.12989800     -0.37333100      1.84600600
H          -2.04829300      0.74980500     -1.00371700
H          -1.96215600     -1.41192300      1.17975700
H          -0.91011100      2.15633400      0.42977500
H          -3.98016400     -0.33771300     -1.89771500
H           1.61678400      1.52272200      2.15507700
H          -3.80064800     -2.45986200      0.33813400
H          -5.02811400     -2.34228900     -1.05635500
H           0.62445000      4.12670400      0.80785700
H           2.17101600      3.89183300      1.82534600
