16
b3lypvdz=-234.459881750309 
C          -1.83166400      0.90486700     -1.66020500
C          -0.36795800      1.30382100     -1.90373700
C           0.23920400      2.11329300     -0.77378500
C           0.39606300      1.41195200      0.52029400
C           0.64166300      3.38456100     -0.95121900
C           0.33336000      1.96227100      1.74099100
H          -1.94254000      0.33684800     -0.72113000
H          -2.21347800      0.27203600     -2.47792600
H          -2.47685900      1.79558700     -1.58562700
H          -0.28467800      1.87668700     -2.84156000
H           0.23517400      0.38690000     -2.04255300
H           0.56961300      0.33000800      0.44407300
H           1.12265700      3.94836900     -0.14880000
H           0.51117300      3.89030000     -1.91199700
H           0.11375900      3.02420300      1.88470300
H           0.49051100      1.36069600      2.63957600
