14
b3lypvdz=-233.245223719032 
C          -0.58885300      0.14880800      1.05653900
C          -2.05432000     -0.27821500     -0.92961100
C          -1.61938800     -0.57329300      0.30702900
C          -0.29057000      1.46233400      0.92530400
C           0.76607600      2.13078100      1.66498000
C           1.07059700      3.43556800      1.54480100
H          -0.02968900     -0.43533500      1.79793000
H          -1.62268700      0.54353900     -1.50832300
H          -2.84523600     -0.86246300     -1.40590200
H          -2.04738000     -1.44601300      0.81532700
H          -0.88120500      2.07849100      0.23693600
H           1.34738200      1.50542100      2.35377900
H           0.51287200      4.08677900      0.86410400
H           1.88160100      3.89070000      2.11740800
