7
b3lypvdz=-95.792480909182 
N           2.89624700     -2.29451300     -0.64449600
C           3.19222400     -1.91625200      0.73991600
H           3.42553100     -3.13587200     -0.88578700
H           3.24700800     -1.57155300     -1.27702300
H           2.63225100     -1.00119100      0.99550200
H           4.26323300     -1.73189300      0.97710800
H           2.83510600     -2.70802500      1.41968000
