17
b3lypvdz=-272.53104993729 
C          -1.89776700      0.96480300     -1.69482500
C           0.05908200     -0.30941200      0.33152100
C          -2.20729700     -0.18566500     -0.76885300
C          -1.31240900     -0.71894300      0.10509200
C           0.87873200     -0.89659500      1.22500900
C          -3.58475800     -0.70477200     -0.89525300
C          -4.19950500     -1.63875500     -0.15092300
H          -0.87335500      1.34583200     -1.59869700
H          -2.05099100      0.65935900     -2.74614700
H          -2.59016900      1.80540800     -1.51116500
H           0.45074000      0.52692900     -0.25637800
H          -1.64569100     -1.56603000      0.71505400
H           1.90544500     -0.55331900      1.36909000
H           0.54200300     -1.73843200      1.83854300
H          -4.16414200     -0.24335000     -1.70479500
H          -3.70729400     -2.13842700      0.68756700
H          -5.22782500     -1.93673200     -0.36564000
