16
b3lypvdz=-234.459912651846 
C          -1.83679900      1.35409200     -1.88340300
C          -0.34303800      1.02234700     -1.72125000
C           0.31556800      1.74873100     -0.56445600
C           0.78985900      1.09400700      0.51050500
C           0.42631400      3.21960000     -0.69973000
C           0.31451800      4.11236900      0.29359500
H          -2.41107300      1.04445900     -0.99404800
H          -2.26522100      0.83527000     -2.75656500
H          -1.99552300      2.43704000     -2.02064100
H           0.18647600      1.29449300     -2.65433100
H          -0.20993100     -0.06481300     -1.59341900
H           0.68729100      0.00892800      0.60604900
H           1.30108300      1.62258500      1.31884000
H           0.59466400      3.59110200     -1.71972800
H           0.09500800      3.79914500      1.31887600
H           0.43360400      5.18314500      0.10570700
