16
b3lypvdz=-309.461005611524 
C          -0.06639400     -0.30195200      0.41132100
C          -2.27963300     -0.14697600     -0.69483600
C          -1.46693000     -0.73988500      0.28985900
C           0.88817200     -0.81139000      1.20434500
C          -3.60826500     -0.54027100     -0.87043000
C          -2.03987200     -1.73183700      1.11225400
C          -4.15489900     -1.53689000     -0.05832100
C          -3.36535000     -2.12556200      0.93826400
H           0.20217900      0.53656300     -0.24223900
H          -1.85241100      0.62975000     -1.33505100
H           1.89603700     -0.39103700      1.20242400
H           0.70987700     -1.65883500      1.87176400
H          -4.21814100     -0.06500400     -1.64228800
H          -1.43940900     -2.19767300      1.89637800
H          -5.19000900     -1.85655600     -0.20017300
H          -3.78965300     -2.89704500      1.58572900
