8
b3lypvdz=-79.764224394555 
C          -1.81040700      0.87511600     -1.81062600
C          -0.32419300      1.24218400     -1.89647400
H          -2.00925300      0.19249000     -0.96727800
H          -2.15394300      0.37213600     -2.73090600
H          -2.43547700      1.77240200     -1.66696600
H           0.01934400      1.74516200     -0.97619300
H          -0.12534800      1.92481300     -2.73982000
H           0.30087600      0.34489800     -2.04013800
