18
b3lypvdz=-310.594663108964 
C          -0.26951900      0.19279000      0.96185200
C          -2.14290000     -0.31567300     -0.66458000
C          -0.08805900      2.26548900     -0.48285700
C          -1.52652500     -0.41136100      0.54089400
C           0.36547600      1.31184800      0.51486900
C          -3.42274400     -0.92158400     -1.04094400
C           0.65332700      3.30115900     -0.92196400
C          -4.21408400     -1.71710200     -0.29791200
H           0.21821400     -0.33174600      1.79138800
H          -1.64771400      0.24462900     -1.46180600
H          -1.09884300      2.14214100     -0.88045700
H          -1.99709900     -1.04124100      1.30583200
H           1.32270300      1.55725200      0.99003700
H          -3.75867900     -0.67788400     -2.05533900
H           1.67146600      3.47218300     -0.55672700
H           0.26238400      4.00852700     -1.65707000
H          -3.95994200     -2.01403400      0.72337300
H          -5.15166200     -2.10419500     -0.70298800
