18
b3lypvdz=-310.59682611852 
C          -0.51847400      0.28629500      1.27212600
C          -0.18608500      2.14281900     -0.43502200
C          -1.53645000     -0.35461500      0.65041700
C           0.17725900      1.50912900      0.85631300
C           0.29639800      3.28750800     -0.93725400
C          -2.15359400     -1.56255000      1.17165400
C           1.14014000      2.00829900      1.66817900
C          -3.18771800     -2.19955300      0.59320200
H          -0.15478700     -0.14249000      2.21339200
H          -0.91595600      1.59796100     -1.03992100
H          -1.95124600      0.02885600     -0.28723500
H           1.02584600      3.90468100     -0.40536200
H          -0.03798300      3.65412400     -1.90990700
H          -1.73048200     -1.96192100      2.10133400
H           1.70044400      2.91162900      1.42280700
H           1.38313500      1.52000900      2.61439700
H          -3.63280200     -1.83276700     -0.33694400
H          -3.61624500     -3.10461400      1.02892300
