18
b3lypvdz=-310.588900429148 
C          -0.14739000     -0.02697100      0.83374700
C          -1.52340100     -0.49778700      0.57811700
C           0.03651100      1.44393300      0.80061300
C           0.87541000     -0.87850800      1.06107800
C          -2.10929400     -1.56337300      1.16518900
C           0.88332900      2.14929400      1.56248600
C          -4.11653500     -1.92217000     -0.28641200
C          -3.46215500     -2.05201500      0.87979100
H          -2.12195800      0.11741400     -0.10531400
H          -0.62082000      1.98682700      0.10890300
H           1.89038900     -0.51307000      1.23238000
H           0.72388100     -1.96041500      1.05541400
H          -1.55489000     -2.10050800      1.94383100
H           0.96001500      3.23547600      1.46344700
H           1.51917900      1.66908700      2.31202900
H          -3.65136800     -1.45218000     -1.15790000
H          -5.13427700     -2.30022900     -0.40816700
H          -3.95702700     -2.58570500      1.70046700
