17
b3lypvdz=-272.525470215897 
C          -0.08592600     -0.16333400      0.46830400
C          -2.44318700     -0.01250500     -0.41851300
C           0.35459200      1.94102600     -0.83446400
C          -1.40967600     -0.69311400      0.10275200
C           0.16836700      1.30154600      0.32502100
C           0.85206900     -1.01048800      0.95169400
C           2.25422300     -0.66754200      1.35031400
H          -2.38415800      1.05782800     -0.62837900
H          -3.37883900     -0.52203200     -0.65940600
H           0.34586600      1.40883800     -1.79040100
H           0.52866000      3.02047100     -0.86563800
H          -1.52931800     -1.76750800      0.29005000
H           0.18705000      1.88292800      1.25694100
H           0.56141500     -2.06340400      1.05788200
H           2.98121400     -1.25703300      0.76383000
H           2.44372000     -0.92382000      2.40914000
H           2.48283000      0.39744400      1.19847200
