14
b3lypvdz=-233.235478385343 
C          -0.16074500     -0.08295300      0.81991900
C          -1.49991000     -0.60343400      0.45758700
C          -0.00805400      1.38923500      0.75672700
C           0.85920000     -0.89850800      1.15827600
C          -2.09436100     -1.67792700      0.99409300
C           0.78948400      2.13076300      1.53800400
H          -2.04716700     -0.01779300     -0.29199600
H          -0.64023100      1.89772400      0.01767200
H           1.84512100     -0.49806700      1.40176100
H           0.73345700     -1.98308400      1.17545000
H          -3.08136700     -2.00542200      0.65964000
H          -1.61630700     -2.25987500      1.78746800
H           0.85458200      3.21474000      1.41302200
H           1.39629900      1.68110000      2.32907800
