18
b3lypvdz=-310.585783287735 
C          -0.01131900     -0.13477300      0.45551800
C          -2.43611200      0.15822600     -0.11220100
C           0.60144400      1.79801900     -0.95439600
C          -1.39255800     -0.59822800      0.26311400
C           0.30457200      1.32470500      0.26994400
C           0.95065800     -1.00028800      0.83193000
C           0.26265600      2.14495600      1.50472300
C           0.64034400      3.42433400      1.64967500
H          -2.32367600      1.22299500     -0.33083800
H          -3.43059600     -0.28016600     -0.22337300
H           0.62000600      1.13383500     -1.82104100
H           0.83906200      2.85084300     -1.12743300
H          -1.55203800     -1.66518500      0.45996300
H           1.98069100     -0.67462000      0.99358100
H           0.72001200     -2.05753700      0.99496300
H          -0.11230600      1.61488200      2.38662600
H           1.03876100      4.01933900      0.82306400
H           0.56560000      3.92136200      2.61978100
