14
b3lypvdz=-233.238385437335 
C          -0.07498200     -0.11482200      0.53731000
C          -2.33267100     -0.09982300     -0.63148800
C           0.08092200      2.04855500     -0.77766000
C          -1.27589500     -0.71514200     -0.07805600
C           0.37777100      1.26664700      0.27110700
C           0.65538700     -0.87469700      1.38725300
H          -2.41585100      0.98577200     -0.70482900
H          -3.17339100     -0.68665500     -1.00857700
H          -0.58188100      1.72670900     -1.58220300
H           0.53175200      3.03969100     -0.87057600
H          -1.30277500     -1.80975800     -0.01123900
H           1.08463500      1.65278500      1.01541100
H           1.53938800     -0.47451500      1.88967700
H           0.38599000     -1.91194700      1.60107000
