14
b3lypvdz=-233.23483570037 
C           0.04211500     -0.05161600      0.47239100
C           0.26363900      2.14664900     -0.69936900
C           0.34998400      1.39381500      0.57548500
C           0.62065000     -1.02870200      1.18383700
C           0.44099100      3.46159100     -0.88936300
C           0.67081500      1.95701200      1.75962800
H          -0.70769100     -0.32179100     -0.28185700
H           0.02812200      1.53134100     -1.57522200
H           1.41526300     -0.81561700      1.90499300
H           0.32148200     -2.07196700      1.05703200
H           0.66859000      4.14924200     -0.07034400
H           0.35701800      3.89862100     -1.88681900
H           0.93827200      3.01209400      1.84455200
H           0.66985000      1.36783000      2.67815700
