18
b3lypvdz=-310.591880533669 
C          -0.05096600     -0.18726900      0.50079800
C          -2.38541400     -0.10972400     -0.50504200
C          -0.01006600      2.09231900     -0.61680500
C          -1.28218900     -0.75182800     -0.09066600
C           0.37340300      1.21174000      0.33464800
C           0.73184200     -1.01001600      1.24227700
C           0.49453600      3.46358100     -0.73773500
C           0.91501500      4.24964900      0.26748000
H          -2.49159100      0.97592900     -0.46237600
H          -3.24240700     -0.67607600     -0.87717000
H          -0.70482500      1.76803100     -1.39648700
H          -1.28580300     -1.84787300     -0.13418600
H           1.15056000      1.53038500      1.03863200
H           1.64160200     -0.64522500      1.72468600
H           0.47870700     -2.06373900      1.38268400
H           0.50278400      3.87546100     -1.75455500
H           0.87695600      3.92047900      1.31045500
H           1.30135800      5.25277600      0.07276200
