13
b3lypvdz=-195.180428793669 
C          -0.31338000      1.28440400     -1.96897900
C          -0.08946300     -0.03810600      0.71591500
C           0.12555100      2.00923100     -0.71941500
C           0.20012300      1.26292300      0.54347800
C           0.45381300      3.31651100     -0.74468100
H          -1.32544600      0.85838600     -1.84879000
H          -0.32833400      1.96258300     -2.83559100
H           0.36558800      0.44717600     -2.20396200
H          -0.42350000     -0.68042400     -0.10336200
H           0.00381400     -0.50505900      1.70016100
H           0.52964800      1.83989800      1.41626100
H           0.77505000      3.84343300      0.15912600
H           0.41213700      3.89954300     -1.66896100
