13
b3lypvdz=-195.180034606907 
C          -0.71671700      1.41815600     -1.99978900
C           0.32951400     -0.27440800      0.46541800
C           0.12915400      1.86760500     -0.84604300
C           0.56803000      1.13980400      0.20211100
C           0.83363300     -0.92446500      1.52990100
H          -1.63360600      2.02992000     -2.07445700
H          -0.17393800      1.56200100     -2.95316000
H          -1.02102400      0.36267600     -1.93889400
H          -0.28746900     -0.83458600     -0.24693800
H           0.43125800      2.92180000     -0.87433200
H           1.18356500      1.65462200      0.95064300
H           1.45420500     -0.40658100      2.26888900
H           0.63899600     -1.98594400      1.70205200
