14
b3lypvdz=-233.239665915851 
C          -0.46630100      0.05648600      0.78631100
C           0.19382400      2.11678900     -0.54478000
C          -1.41502500     -0.34675600     -0.07327200
C           0.29882600      1.31186800      0.69703500
C           0.08939500      3.45118600     -0.59353200
C           1.08913700      1.69433600      1.72444500
H          -0.22559600     -0.57514600      1.64936700
H           0.19325000      1.55349200     -1.48561100
H          -1.70679100      0.25596300     -0.93748200
H          -1.94063300     -1.29343400      0.07113400
H           0.03959800      4.05828000      0.31547300
H           0.03728000      3.97735900     -1.55054500
H           1.69337200      2.60209300      1.67468100
H           1.14916400      1.09808300      2.63907800
