17
b3lypvdz=-272.523913310139 
C           0.15850800      1.33988500     -2.02426200
C          -0.20734900      0.03892000      0.71455000
C           0.07319300      2.10750600     -0.72586000
C           0.43102400      1.36340200      0.52127300
C           0.35611100     -1.02880300      1.29707100
C          -0.31304200      3.39285300     -0.68216200
C           1.28331500      1.88303600      1.42636000
H          -0.51947400      0.46942900     -2.02330200
H          -0.10138300      1.97743000     -2.88252700
H           1.17459500      0.93623200     -2.17648600
H          -1.23170800     -0.05374700      0.33309100
H           1.38806600     -1.00956300      1.65838400
H          -0.20352300     -1.95794000      1.42968500
H          -0.40942800      3.92713500      0.26574000
H          -0.56104500      3.93949300     -1.59637900
H           1.78175900      2.83738100      1.24494100
H           1.49398100      1.37135000      2.36838200
