10
b3lypvdz=-155.891414333651 
C          -0.42321700      0.00444700      0.90913000
C           0.81881000      2.04193100      1.57904000
C          -1.33641900     -0.61553000      0.14340700
C          -0.09717100      1.42323600      0.81557200
H           0.13226500     -0.57187100      1.65978900
H           1.03276900      3.10785800      1.46915900
H           1.39382200      1.49544700      2.33338200
H          -1.90845100     -0.06908200     -0.61324300
H          -1.55079500     -1.68135500      0.25306200
H          -0.65431400      2.00131900      0.06750300
