17
b3lypvdz=-272.521908695739 
C          -1.59192500      0.71559100     -1.97682400
C          -0.29690400      0.06135500      0.78455700
C          -2.17152000     -0.11069700     -0.86912900
C          -1.61869500     -0.42974200      0.32620000
C           0.20029200      1.29962700      0.64778400
C          -2.28398500     -1.35051200      1.28574700
C          -3.46485900     -1.97680400      1.16623800
H          -0.50561000      0.85812400     -1.87937200
H          -1.80785700      0.24635900     -2.95237200
H          -2.05457300      1.72018000     -2.01225900
H           0.30503600     -0.67645900      1.33208100
H          -3.15929700     -0.53324800     -1.08497800
H          -0.36615500      2.10355000      0.17134800
H           1.19034500      1.55186500      1.03660900
H          -1.71895900     -1.52179100      2.20995700
H          -4.10976100     -1.87008200      0.28942300
H          -3.83497100     -2.61751400      1.96958700
