14
b3lypvdz=-233.23959212693 
C          -0.33455000      0.10470700      0.89444500
C          -2.23857700     -0.28915200     -0.74372500
C          -1.47760700     -0.71258000      0.45562400
C           0.04016600      1.28478900      0.37609300
C          -3.57456600     -0.28437400     -0.84441300
C          -1.79856300     -1.84121100      1.12413500
H           0.24180000     -0.31289000      1.72796500
H          -1.64104500      0.04903700     -1.59867300
H          -0.50242700      1.75982600     -0.44517400
H           0.90587200      1.82003400      0.77282400
H          -4.21371100     -0.56554200     -0.00190500
H          -4.07098600      0.01705700     -1.77047400
H          -2.61287900     -2.48747600      0.79078700
H          -1.24422700     -2.14662600      2.01609100
