16
b3lypvdz=-309.460814691597 
C          -0.43370800      0.04120400      0.86761900
C          -0.16407000      2.12541000     -0.55234300
C          -1.21256300     -0.69428900      0.05976100
C           0.03722800      1.42060400      0.65218300
C           0.29467000      3.43307800     -0.70046100
C           0.71888300      2.07665100      1.69505800
C           0.96577500      4.07291400      0.34990300
C           1.17497000      3.38898800      1.55017200
H          -0.10157300     -0.40757400      1.81139600
H          -0.67850700      1.64008300     -1.38440900
H          -1.59418500     -0.31784600     -0.89315000
H          -1.50368800     -1.70973000      0.33734500
H           0.12866500      3.96106200     -1.64292800
H           0.89028200      1.54386700      2.63458200
H           1.32873500      5.09620300      0.22851700
H           1.69458800      3.87767400      2.37805400
