18
b3lypvdz=-310.590239298721 
C          -0.25408000      0.04676500      0.77401000
C          -1.89625800     -0.46621300     -1.01476600
C          -0.15529400      2.23895300     -0.47739500
C          -1.51582100     -0.53888500      0.28099300
C           0.35394400      1.20053100      0.40593900
C           0.54279600      3.34404700     -0.79888000
C          -2.30663000     -1.24991400      1.31897700
C          -3.40389100     -2.00031700      1.14784200
H           0.24911600     -0.54363000      1.54974600
H          -1.25705700     -0.00392900     -1.76781100
H          -2.84118100     -0.89301800     -1.35821500
H          -1.16792200      2.11956400     -0.87296000
H           1.31772200      1.42181900      0.87981000
H           1.55995200      3.50478800     -0.42637000
H           0.11719900      4.12208100     -1.43679500
H          -1.92363700     -1.13021400      2.33930200
H          -3.84772400     -2.18347300      0.16532700
H          -3.89933500     -2.46495300      2.00304600
