18
b3lypvdz=-310.592022104752 
C          -0.12886600     -0.18792700      0.68375900
C          -2.17269100     -0.04788400     -0.79224400
C          -1.32071600     -0.72118300     -0.00301300
C           0.21941100      1.23782100      0.51508800
C           0.62452800     -1.02527200      1.43268500
C           0.81458800      2.00677400      1.45035100
C           0.55821600      4.32354900      0.51653800
C           1.16569600      3.42383500      1.30678300
H          -2.06582400      1.01890600     -1.00164000
H          -3.01856600     -0.55714800     -1.25935700
H          -1.50411500     -1.78804000      0.17109800
H          -0.03077400      1.68952300     -0.45050900
H           1.54730100     -0.69450700      1.91222900
H           0.33811400     -2.07157600      1.56611200
H           1.08075400      1.55021300      2.41044600
H          -0.31174300      4.06361700     -0.09386400
H           0.90827700      5.35780300      0.47235800
H           1.99240800      3.76619700      1.94177900
