13
b3lypvdz=-195.173950765392 
C          -0.48056900      1.41874700     -1.99498100
C          -0.12094200     -0.07421400      0.80782800
C          -0.02715600      1.98011000     -0.67964200
C          -1.14752600     -0.81843100      0.36420100
C           0.14861700      1.33264300      0.49012300
H          -1.52844400      1.69572000     -2.21493700
H           0.12395400      1.84192800     -2.81471400
H          -0.40934000      0.32122800     -2.02935000
H           0.57796300     -0.53217800      1.52042500
H           0.22979200      3.04642900     -0.68760300
H          -1.91766800     -0.40598600     -0.29198400
H          -1.26662200     -1.85875700      0.67766700
H           0.57684200      1.91366100      1.31606800
