17
b3lypvdz=-272.525571360167 
C          -0.13710000     -0.34641400      0.56355100
C          -2.30836800     -0.20420500     -0.66928900
C          -1.54212700     -0.80526800      0.45130300
C           0.88907300     -1.06991700      1.04136200
C           2.30275400     -0.59264300      1.17466000
C          -3.57336000     -0.46365200     -1.03002900
C          -2.06821700     -1.69352100      1.32142100
H           0.06587100      0.66563300      0.18955100
H          -1.74916500      0.52803900     -1.26297800
H           0.69432600     -2.10099400      1.36100400
H           2.99693800     -1.22392000      0.59310400
H           2.64111500     -0.65409000      2.22532400
H           2.41909800      0.44890200      0.83553700
H          -4.20102700     -1.18518900     -0.49956200
H          -4.02678700      0.04715100     -1.88236700
H          -3.09037000     -2.06381600      1.22428200
H          -1.48505300     -2.06659700      2.16472600
