18
b3lypvdz=-310.584169708839 
C          -0.25969600     -0.11067600      0.43646600
C          -2.60404000     -0.14817400     -0.51026200
C           0.79790000      2.00578700     -0.40542100
C          -1.66268700     -0.62834500      0.52877600
C          -0.10128800      1.36088500      0.35116800
C           0.79961500     -0.94117300      0.44900100
C          -3.65681600     -0.82209200     -0.99548600
C          -2.02812400     -1.46977500      1.51636500
H          -2.37069800      0.83471300     -0.93572500
H           1.48057600      1.46748300     -1.06904200
H           0.87162400      3.09654400     -0.39337900
H          -0.80367500      1.95373500      0.95115600
H           1.82144400     -0.55488400      0.44397000
H           0.66435900     -2.02537200      0.46773800
H          -3.90585600     -1.83078000     -0.65453900
H          -4.30133000     -0.38164000     -1.76006100
H          -3.05773800     -1.82322600      1.60771800
H          -1.30697000     -1.80191000      2.26545700
