18
b3lypvdz=-310.602419323402 
C          -0.20430900      0.15682200      1.02735300
C          -0.04743900      2.12125400     -0.53788200
C          -1.46133000     -0.39983600      0.58539100
C           0.41881000      1.26481100      0.53733200
C           0.59171700      3.23641400     -0.93922500
C          -2.04047800     -1.48482500      1.16098800
C          -4.17876000     -1.69892000     -0.15616400
C          -3.31352300     -2.10255500      0.79290000
H           0.28670600     -0.37583200      1.84964900
H          -0.97763800      1.84298200     -1.04349500
H          -1.97201800      0.09063400     -0.24877300
H           1.36709200      1.55893700      1.00077200
H           1.52339200      3.56049700     -0.46433900
H           0.20186700      3.85749600     -1.74856400
H          -1.50580000     -1.96247500      1.99007400
H          -4.00494300     -0.80995200     -0.76895600
H          -5.10129800     -2.25214900     -0.34432000
H          -3.57394800     -2.99700400      1.37006000
