18
b3lypvdz=-310.592612487983 
C          -0.14699300     -0.11279200      0.81331600
C          -2.44855100      0.00104700     -0.19418600
C          -1.43767300     -0.67371700      0.39930900
C           0.19327900      1.28305800      0.44276100
C           0.72482600     -0.89073800      1.49759900
C          -3.72726000     -0.56720300     -0.63488800
C           0.94267100      2.11558500      1.17833900
C          -4.08687800     -1.86289200     -0.64724500
H          -2.32855800      1.07495200     -0.36577300
H          -1.56262400     -1.74022500      0.61749400
H          -0.20443800      1.63954300     -0.51351900
H           1.71637000     -0.52921000      1.77407000
H           0.45975400     -1.91148500      1.78454200
H          -4.45611600      0.16524700     -0.99922200
H           1.18758600      3.11822000      0.81873700
H           1.33048600      1.82336200      2.15805400
H          -3.41653700     -2.66376900     -0.32345700
H          -5.07564100     -2.16368400     -1.00023200
