18
b3lypvdz=-310.592921041523 
C          -0.35113100      0.14789000      1.02404600
C          -2.00496300     -0.46450400     -0.85051500
C          -0.22341000      2.13476300     -0.55867000
C          -1.48848600     -0.64397600      0.52877600
C           0.19583200      1.29942500      0.55702000
C          -3.30067600     -0.43200100     -1.19079900
C           0.41987700      3.26250800     -0.91364900
C          -2.01907800     -1.60081800      1.32591400
H           0.10725600     -0.26779600      1.92758100
H          -1.24430800     -0.37458900     -1.63469000
H          -1.12072100      1.84357400     -1.10950100
H           1.05951900      1.68264300      1.11409800
H          -4.09110500     -0.47557200     -0.43566300
H          -3.61082500     -0.34657100     -2.23528000
H           1.31617100      3.60079000     -0.38312100
H           0.06965500      3.88075000     -1.74330800
H          -2.82537000     -2.24711200      0.97408100
H          -1.64643700     -1.76160600      2.34117800
