17
b3lypvdz=-272.532416025354 
C          -1.99188200      1.03722400     -1.70995900
C          -0.67694200      0.24578000      1.08740400
C          -2.32694500     -0.16522600     -0.85943900
C          -1.66629000     -0.41155300      0.42695600
C           0.08459500      1.43051600      0.72272600
C          -3.26133000     -1.04963900     -1.27320400
C           1.09872900      1.90655900      1.46978600
H          -0.93196300      1.03880600     -2.01425200
H          -2.60261400      1.05338000     -2.62395300
H          -2.17662900      1.97546000     -1.15940700
H          -0.37666000     -0.19142300      2.04746600
H          -2.05737200     -1.29883000      0.93688500
H          -0.16840400      1.95613400     -0.19851300
H          -3.52336400     -1.92374100     -0.67114800
H          -3.78325300     -0.92883400     -2.22497000
H           1.65722100      2.79573100      1.16902500
H           1.39760200      1.42195700      2.40489800
