18
b3lypvdz=-310.585138163419 
C          -0.28225500     -0.03990100      0.83662300
C          -2.48740200      0.33706300     -0.26745600
C          -1.69262400     -0.41670900      0.52230600
C           0.19131300      1.31886700      0.47427100
C           0.56071300     -0.91898000      1.42025300
C          -2.22880900     -1.65117900      1.15052300
C           1.00455800      2.07503800      1.22302500
C          -3.02399700     -2.54976200      0.55475200
H          -2.14084400      1.25446400     -0.74400600
H          -3.52458800      0.04912600     -0.44922500
H          -0.15699000      1.72488200     -0.48100700
H           1.60258600     -0.65337200      1.60913600
H           0.24453500     -1.92471700      1.69978400
H          -1.94339100     -1.81794800      2.19601300
H           1.34138500      3.05464800      0.87395600
H           1.35658000      1.74507900      2.20490300
H          -3.31210500     -2.46081500     -0.49689900
H          -3.41106500     -3.40988400      1.10694800
