14
b3lypvdz=-233.234669817259 
C          -0.15508000     -0.25140300      0.51590700
C          -2.33628000     -0.21920200     -0.70213400
C          -1.53882700     -0.77509100      0.41909100
C           0.90360800     -0.88220800      1.04250100
C          -3.60351300     -0.50686500     -1.03129300
C          -2.01947000     -1.67116900      1.30685100
H          -0.00427900      0.74740700      0.08844900
H          -1.80055300      0.50732000     -1.32361400
H           1.88266300     -0.39921500      1.08481300
H           0.83001400     -1.89757700      1.44183900
H          -4.21111000     -1.22123600     -0.46878800
H          -4.08028800     -0.02350600     -1.88675300
H          -3.02978200     -2.07671200      1.22820200
H          -1.41260100     -2.01254300      2.14702900
