16
b3lypvdz=-234.451641458571 
C          -1.83132500      0.87582000     -1.71483800
C          -0.34283300      1.27531800     -1.74554700
C          -2.26087700     -0.13101200     -0.67676400
C           0.03983700      2.25046100     -0.66473500
C          -1.48721100     -0.82494700      0.16397900
C           0.59282400      3.44748300     -0.88506200
H          -2.11772700      0.47092700     -2.70540400
H          -2.44626400      1.78779900     -1.59443000
H          -0.10559100      1.72168900     -2.72602300
H           0.27551500      0.36228500     -1.66557000
H          -3.34390200     -0.31135700     -0.64621900
H          -0.17789000      1.94405600      0.36571900
H          -0.40016200     -0.70963300      0.19870600
H          -1.92622700     -1.54608000      0.85785400
H           0.84518300      4.12439800     -0.06497700
H           0.82295100      3.79339500     -1.89899000
