16
b3lypvdz=-234.459046518658 
C          -0.09266200     -0.08384300      0.61696100
C           0.04078400      1.37635800      0.65083400
C           0.82437200     -1.01929500      0.93757800
C           2.25114000     -0.81886900      1.36867600
C           0.77423900      2.11338000      1.50293800
C           3.19341500     -1.88145000      0.79171700
H          -1.05917300     -0.44679600      0.24798100
H          -0.56487400      1.91003000     -0.09311600
H           0.51062800     -2.06781100      0.84173600
H           2.30977800     -0.85509300      2.47513600
H           2.59143100      0.19022000      1.08243100
H           0.79373700      3.20405100      1.42769600
H           1.34866400      1.66322600      2.31555600
H           3.20094500     -1.85253400     -0.31091500
H           4.22642300     -1.72665800      1.14309900
H           2.88505300     -2.89621400      1.09779200
