13
b3lypvdz=-174.358593294 
N           2.90036400     -2.28241400     -0.63047500
C           2.32331900     -0.74297000      1.23144700
C           3.40454400     -1.32375600     -1.60721400
C           3.16908600     -1.92501600      0.76324100
H           3.33611700     -3.18700200     -0.81575800
H           1.25444700     -0.93729500      1.03878200
H           2.46304400     -0.57241600      2.31214800
H           2.60072600      0.19050300      0.71470100
H           3.25454600     -1.72702900     -2.62236900
H           4.48446400     -1.06713300     -1.49192800
H           2.83486500     -0.38266600     -1.54618700
H           4.24721100     -1.69611500      0.94891100
H           2.92156700     -2.80779100      1.37839900
