16
b3lypvdz=-234.460837733063 
C          -1.75871500      0.82773200     -1.94574300
C          -0.34393200      1.36751700     -1.72218800
C          -2.23639900     -0.22315200     -0.97931200
C          -1.58849700     -0.66798700      0.11139500
C          -2.09639700     -1.67498800      1.05718300
C          -3.38447200     -1.92350300      1.34285200
H          -1.83919000      0.41256300     -2.96974000
H          -2.48120200      1.66836400     -1.92457000
H          -0.23487800      1.82561700     -0.72490700
H          -0.10162100      2.13995400     -2.46934500
H           0.40953400      0.56702400     -1.81042900
H          -3.21533300     -0.65898300     -1.21787800
H          -0.58736900     -0.28133100      0.33159300
H          -1.32851000     -2.25433000      1.58435900
H          -4.19606800     -1.34503800      0.89158800
H          -3.66655100     -2.71186000      2.04534200
