16
b3lypvdz=-234.47090253815 
C          -1.98658500      1.05948900     -1.67812300
C           0.04756400     -0.36939600      0.26718800
C          -2.21417000     -0.14550000     -0.81515600
C          -1.33944500     -0.73893900      0.02298000
C           0.85721600     -1.03305900      1.11525300
C           2.29734500     -0.71283000      1.36958200
H          -0.97986900      1.48940700     -1.56939400
H          -2.13799300      0.81270900     -2.74572600
H          -2.71626800      1.85500200     -1.44244600
H           0.45891600      0.48579000     -0.28219800
H          -3.21405200     -0.58945900     -0.88847700
H          -1.69136000     -1.61576300      0.58032200
H           0.43940200     -1.88715200      1.66603400
H           2.94966800     -1.56899800      1.11487700
H           2.48542700     -0.49494700      2.43712900
H           2.63390400      0.15224400      0.77745500
