18
b3lypvdz=-310.592741427428 
C          -0.00039400     -0.16345300      0.80046900
C          -0.33814100      2.14595800     -0.12830800
C          -1.20194500     -0.70692300      0.12359400
C           0.38252200      1.23091300      0.55925400
C           0.76942200     -0.93429700      1.60302900
C           0.04986000      3.53427500     -0.38994800
C          -2.06065400     -1.59589600      0.64053200
C           1.23432900      4.11404800     -0.12526800
H          -1.31104900      1.85029200     -0.53093200
H          -1.38432100     -0.33630300     -0.89102100
H           1.33823300      1.52757700      1.00297400
H           1.64827200     -0.51912900      2.10274600
H           0.55054600     -1.99005700      1.77012500
H          -0.72487000      4.14607700     -0.86519200
H          -2.90189500     -1.96987200      0.05250900
H          -1.95944900     -1.97354600      1.66155300
H           2.06451400      3.56721700      0.32899100
H           1.41141800      5.16351900     -0.36861100
