14
b3lypvdz=-233.238680085924 
C          -0.34429900     -0.08495500      0.80546000
C          -0.19118700      2.13791800     -0.37551200
C          -1.20469200     -0.77002400      0.03059200
C           0.13997400      1.28390900      0.62065400
C           0.29837800      3.50622100     -0.55647700
C           1.14686200      4.18893800      0.23384600
H           0.06022000     -0.59650600      1.68633500
H          -0.89407800      1.79990000     -1.14478000
H          -1.65341600     -0.34637800     -0.87259500
H          -1.49191000     -1.79240600      0.28691600
H           0.84227700      1.62713100      1.38823400
H          -0.08723500      4.01496600     -1.44725200
H           1.57217000      3.76118100      1.14628900
H           1.44563600      5.20910500     -0.01711000
