12
b3lypvdz=-232.108808111588 
C           0.15264200      2.02193300     -0.68190400
C           0.20725900      1.37389400      0.55652400
C           0.48116100      3.37838900     -0.77660600
C           0.58766100      2.08201100      1.70109400
C           0.86158300      4.08651900      0.36797900
C           0.91589800      3.43856200      1.60642500
H          -0.14998500      1.46910800     -1.57470800
H          -0.05469200      0.31539700      0.63182800
H           0.43876300      3.88609900     -1.74382700
H           0.63045300      1.57423000      2.66825700
H           1.12381500      5.14493900      0.29259000
H           1.21794100      3.99151800      2.49934800
