14
b3lypvdz=-233.245324017944 
C           0.19879800     -0.22525300      0.32686500
C           0.04227900      2.07623900     -0.57107700
C           0.47215000      1.19907400      0.36799500
C           0.62627000     -1.11020500      1.24707900
C           0.28391600      3.51967900     -0.60824200
C           0.96282100      4.26114700      0.28601300
H          -0.39553500     -0.58314800     -0.52339200
H          -0.54521000      1.67472000     -1.40513900
H           1.06459100      1.56044600      1.21724700
H           1.22201200     -0.79196500      2.10839300
H           0.38706900     -2.17341000      1.16834200
H          -0.14406600      4.03490000     -1.47572700
H           1.41738400      3.82912000      1.18228200
H           1.08502100      5.33715700      0.14176100
