12
b3lypvdz=-157.108859288302 
C          -1.81533700      0.84398100     -1.82453700
C          -0.33997400      1.24291400     -1.85368600
C          -2.23883600     -0.10039100     -0.72887600
C          -1.49219400     -0.55901700      0.28055100
H          -2.10451600      0.39477200     -2.79475600
H          -2.44364400      1.75383000     -1.74697100
H          -0.03093500      1.74477700     -0.92148100
H          -0.14051800      1.94106900     -2.68284900
H           0.31117200      0.36370700     -1.99073900
H          -3.28571100     -0.42695500     -0.78888100
H          -0.44297800     -0.27793400      0.40833900
H          -1.91482700     -1.23365200      1.03018500
