20
b3lypvdz=-290.982689424558 
N           2.90040100     -2.30463600     -0.64473300
C          -0.06766900     -0.09850300      0.59487300
C           0.81594400     -0.99479900      1.04193700
C           2.29133900     -0.76184800      1.23000300
C           3.14181300     -1.94666900      0.74996100
C           3.41937000     -3.62494300     -0.96295500
C           3.37828400     -1.30083400     -1.58233300
H          -1.12941900     -0.34444500      0.50313200
H           0.23953400      0.90899700      0.29361800
H           0.45847000     -1.99586900      1.31816100
H           2.51297000     -0.61568100      2.30493600
H           2.59386300      0.17571200      0.73382100
H           4.22119800     -1.73513100      0.94765300
H           2.88397100     -2.82995900      1.35948100
H           2.93390400     -4.38103000     -0.32584500
H           4.52388200     -3.71945400     -0.82602100
H           3.18938400     -3.86808500     -2.01298000
H           3.11787600     -1.60360400     -2.60942600
H           4.48376000     -1.14711700     -1.53934400
H           2.89292600     -0.33310100     -1.38963800
