17
b3lypvdz=-272.526505277457 
C           0.28191500      1.30590900     -1.97466500
C          -0.60464500      0.13316800      0.95113800
C           0.00530800      2.02508100     -0.67363500
C          -1.77569800     -0.17306000      0.37052800
C           0.26762700      1.26421300      0.59284600
C          -0.42147200      3.29526900     -0.63431200
C           1.29528000      1.60726400      1.39516500
H          -0.32899400      0.39524500     -2.07552900
H           0.08097000      1.96015600     -2.83669500
H           1.33572200      0.97871200     -2.01814300
H          -0.25546200     -0.47481900      1.79406000
H          -2.18011900      0.41789100     -0.45551600
H          -2.37182000     -1.01866000      0.72059600
H          -0.61826500      3.80043000      0.31423200
H          -0.59552900      3.86273500     -1.55332500
H           1.94725300      2.44889800      1.15308200
H           1.50352900      1.05556800      2.31677300
