14
b3lypvdz=-233.251235780153 
C          -0.59588000      0.19678600      1.27223800
C          -1.64190600     -0.52895700      0.57419500
C          -0.24426600      1.47635800      0.99940100
C          -1.99554400     -1.79966000      0.83985100
C           0.80686200      2.19959000      1.69249200
C           1.16381700      3.46863700      1.42356900
H          -0.05974800     -0.34371200      2.06258900
H          -2.16914300      0.01791400     -0.21713900
H          -0.77963600      2.01538700      0.20756700
H          -2.79130200     -2.29973600      0.28355500
H          -1.49215800     -2.37675200      1.62200800
H           1.33554200      1.65046100      2.48126700
H           0.65836700      4.04642900      0.64323500
H           1.96479400      3.96665300      1.97417100
