16
b3lypvdz=-234.461046189697 
C          -1.82380700      0.73717100     -1.87673700
C          -0.39824400      1.30300000     -1.99218600
C           0.03286000      2.02943100     -0.74995200
C           0.53307200      3.27763200     -0.71281700
C           0.95960000      4.03098200      0.47606100
C           0.96135600      3.62310100      1.75592800
H          -1.89886900      0.01584700     -1.04479200
H          -2.12244700      0.20987300     -2.79788300
H          -2.55524200      1.53964700     -1.68604800
H          -0.31677600      1.97696200     -2.86282800
H           0.29698500      0.46300200     -2.18654900
H          -0.09324500      1.47466000      0.18977700
H           0.64415500      3.81123300     -1.66489700
H           1.31736600      5.04566000      0.26594500
H           0.62479900      2.62640000      2.05571000
H           1.30113500      4.28780000      2.55306800
