18
b3lypvdz=-289.775531960205 
N           3.06547200     -2.07717800     -0.66630100
C          -0.15496200     -0.10426100      0.68437300
C          -0.02264400      1.35408300      0.70371800
C           0.78541400     -1.03800300      0.93299100
C           2.23044400     -0.82321100      1.28841000
C           0.80900900      2.10416200      1.44894400
C           3.14268600     -1.94957200      0.79052400
H           3.66525600     -2.84347800     -0.97866400
H           3.45042800     -1.23603400     -1.10424900
H          -1.14286700     -0.47002700      0.38113000
H          -0.71878900      1.88202000      0.03865400
H           0.47845800     -2.08690400      0.83845100
H           2.34624700     -0.74844600      2.38784000
H           2.57989000      0.14609000      0.88860800
H           0.80973100      3.19377300      1.35568400
H           1.48918400      1.67142900      2.18559400
H           4.16810100     -1.76991100      1.18108900
H           2.80414200     -2.90513400      1.23120300
