13
b3lypvdz=-195.176601860575 
C          -0.33082400      1.22585000     -1.99013900
C          -0.04830500      2.00468500     -0.74110000
C           0.46463700      3.24769500     -0.71156900
C           0.77863200      4.03349400      0.48767500
C           1.10992700      3.55954700      1.69964300
H          -1.37433900      0.86324300     -2.01451100
H          -0.15193300      1.83001000     -2.89367200
H           0.30602000      0.32477000     -2.05237300
H          -0.29167400      1.51410500      0.20968300
H           0.65570900      3.75128200     -1.66831900
H           0.75140200      5.12223700      0.34978000
H           1.21169700      2.48827400      1.89842200
H           1.30825200      4.23760800      2.53298000
