13
b3lypvdz=-195.179883426687 
C           0.17566300     -0.08216500      0.31799600
C          -0.26358700      2.18576800     -0.56112400
C           0.49979700      1.32817000      0.13808200
C           0.93373100     -1.01880400      0.92454900
C           2.29698400     -0.84213600      1.52401100
H          -0.78937200     -0.39871600     -0.09546100
H          -1.18960300      1.85843400     -1.04532500
H           0.01625900      3.23577500     -0.67721400
H           1.41723300      1.70364300      0.60411300
H           0.52206500     -2.03406800      0.98008900
H           3.02164000     -1.52102300      1.04067900
H           2.29733500     -1.10757200      2.59748200
H           2.68325500      0.18249300      1.42362300
