19
b3lypvdz=-273.751693754874 
C          -1.48267800      1.70187100     -1.44380300
C           0.72250300     -0.34587300     -0.50404600
C          -0.17290200      1.99213200     -0.77269200
C           0.75211800      1.10586100     -0.34841800
C           1.58584300     -1.19947900      0.08556300
C           2.68011300     -0.82643600      1.05818700
C           3.14761400     -2.00277000      1.92299700
H          -2.30772700      2.19976200     -0.90477600
H          -1.50109200      2.10649800     -2.47271800
H          -1.71265700      0.62768200     -1.49173100
H          -0.04040600     -0.76931500     -1.16507600
H           0.04102500      3.05363200     -0.59599300
H           1.63447300      1.51790600      0.15066300
H           1.49143400     -2.26659000     -0.15234000
H           2.33441100     -0.00680700      1.71058600
H           3.54933300     -0.42023800      0.50322100
H           3.58296900     -2.80519700      1.30385500
H           3.91657000     -1.68598400      2.64574600
H           2.31005500     -2.43925700      2.49327500
