18
b3lypvdz=-310.58745038532 
C          -0.35462400     -0.00701900      0.45623700
C          -2.70108800      0.35276900     -0.23282500
C           1.04493600      1.58548900     -0.88288500
C          -1.80397400     -0.34384100      0.49828200
C           0.03336900      1.33751600     -0.04028000
C           0.58584500     -0.88269500      0.87214600
C          -2.23463600     -1.44988100      1.38729600
C          -3.14361100     -2.38760500      1.08677800
H          -2.38832200      1.14740700     -0.91407300
H          -3.77010900      0.13875800     -0.16272400
H           1.64576600      0.77498600     -1.30575100
H           1.29992800      2.60486300     -1.18448200
H          -0.58148400      2.17300300      0.31720200
H           1.64191500     -0.60372600      0.87927100
H           0.32496600     -1.88641700      1.21365200
H          -1.74558200     -1.48693900      2.36845800
H          -3.62206400     -2.43404800      0.10419100
H          -3.42943200     -3.14792000      1.81850900
