14
b3lypvdz=-233.245156686755 
C           0.01368600     -0.27978300      0.36072900
C          -2.26890600     -0.18461100     -0.59302000
C          -1.34245600     -0.76699700      0.20516600
C           0.93960700     -0.83584300      1.16369900
C          -3.65514300     -0.61119900     -0.78937100
C          -4.27874900     -1.64941800     -0.20339100
H           0.27804700      0.61088800     -0.22306200
H          -1.96287000      0.70517900     -1.15555800
H          -1.60809100     -1.65942000      0.78419000
H           1.94589400     -0.41966200      1.24704900
H           0.71471600     -1.72515000      1.76106900
H          -4.23099100      0.00284300     -1.49112600
H          -3.77063400     -2.30382000      0.51040900
H          -5.32111100     -1.88240800     -0.43058300
