14
b3lypvdz=-233.241541903338 
C          -0.29814500      0.00983800      0.78754400
C          -2.43025100     -0.02992600     -0.55939800
C           0.21284800      1.93209900     -0.75527200
C          -1.42626200     -0.59099100      0.33281900
C           0.23730700      1.33190400      0.44701600
C          -3.49444200     -0.71484300     -1.01769600
H           0.28937800     -0.54086600      1.53195200
H          -2.31073200      1.01843300     -0.84822900
H          -0.21173500      1.44463200     -1.63630900
H           0.64772300      2.92484000     -0.89559600
H          -1.64089300     -1.59873200      0.70771500
H           0.74921500      1.84985100      1.26854200
H          -3.65563900     -1.76637400     -0.75773100
H          -4.23977200     -0.24156800     -1.66115600
