18
b3lypvdz=-310.592118137323 
C           0.06482400     -0.16145700      0.64774100
C          -0.27338700      2.09381000     -0.42747700
C          -1.30264100     -0.62066000      0.34083300
C           0.48616900      1.17771300      0.19225000
C           0.95200200     -0.93728100      1.31392200
C          -2.03897500     -1.45092000      1.11042700
C          -4.14697900     -1.69781800     -0.25619900
C          -3.38728800     -1.95573300      0.82242800
H          -1.32899400      1.92892200     -0.65795900
H           0.15003500      3.05614900     -0.72551100
H          -1.73917200     -0.23519400     -0.58649400
H           1.53218100      1.42560600      0.40723100
H           1.95180700     -0.56561500      1.55222600
H           0.71025600     -1.95524200      1.62451600
H          -1.61166700     -1.79083700      2.05961700
H          -3.80958300     -1.04917200     -1.06986100
H          -5.14308700     -2.13452900     -0.35629900
H          -3.80380200     -2.61254300      1.59500900
