14
b3lypvdz=-212.424751248061 
N           2.96789000     -2.15195000     -0.72487800
C          -0.10886800     -0.13880600      0.63734400
C           0.79773700     -1.01554500      1.07630200
C           2.27522400     -0.76146000      1.20448900
C           3.15443000     -1.91647600      0.70692600
H           3.52790800     -2.95585100     -1.01755500
H           3.34508900     -1.36055600     -1.25346300
H          -1.17283200     -0.38896200      0.59947200
H           0.18101700      0.85896100      0.29118600
H           0.45962000     -2.00699500      1.40656400
H           2.52400300     -0.58877800      2.26974800
H           2.54518800      0.17232000      0.67757600
H           4.20487600     -1.70918000      1.00812200
H           2.86041800     -2.83862100      1.24106700
