18
b3lypvdz=-310.587934372764 
C          -0.06834300     -0.13360100      0.59029900
C          -2.29177800      0.21104700     -0.53530400
C           0.38619500      1.99825900     -0.72060500
C          -1.31691700     -0.57721100     -0.05465200
C           0.30590200      1.31769800      0.59419000
C           0.74549700     -1.04049500      1.17117300
C           0.28435800      3.31720100     -0.94112800
C           0.61389400      1.93120500      1.75398700
H          -2.23021300      1.30130000     -0.49393300
H          -3.18833800     -0.22318500     -0.98422200
H           0.54064500      1.33641900     -1.58042900
H          -1.44408300     -1.66498200     -0.11405900
H           1.68855000     -0.74137500      1.63252800
H           0.48608500     -2.10337100      1.18719200
H           0.08337600      4.02839200     -0.13444600
H           0.39395400      3.72845000     -1.94765600
H           0.98464500      2.95877100      1.77787900
H           0.50927300      1.41197800      2.70888600
