14
b3lypvdz=-233.235560697874 
C          -0.25901400      0.04544100      0.75841400
C          -0.24119700      2.06388200     -0.67632300
C          -1.22548200     -0.68495500      0.18467300
C          -0.01856200      1.49004300      0.52420400
C           0.46835000      2.25565800      1.69732700
C           1.28389500      3.31877800      1.65951300
H           0.40588600     -0.43817500      1.48593900
H          -0.53171800      1.46633300     -1.54256500
H          -0.13854500      3.14179700     -0.82144600
H          -1.94882600     -0.23943500     -0.50475600
H          -1.33338300     -1.75042100      0.40464100
H           0.12916000      1.88742600      2.67394300
H           1.69237100      3.69799100      0.71830100
H           1.58046500      3.83733500      2.57493400
