17
b3lypvdz=-272.53129703772 
C          -0.59893800      1.45525100     -1.95504000
C           0.37728100     -0.32938400      0.38517700
C           0.12427800      1.93098200     -0.71679800
C           0.55017300      1.10849900      0.27816400
C           0.86466700     -1.05675600      1.41005000
C           0.35952400      3.38873100     -0.68380900
C           0.77559300      4.14404800      0.34627800
H          -1.54716500      2.00499600     -2.08772800
H           0.01303200      1.66014600     -2.85224100
H          -0.82985400      0.38218100     -1.94677700
H          -0.17941000     -0.84690000     -0.40311200
H           1.10412500      1.56085900      1.10870100
H           1.42756900     -0.58768900      2.22315200
H           0.71199900     -2.13706800      1.46793300
H           0.14261300      3.90368000     -1.62822300
H           0.98846900      3.73131900      1.33603400
H           0.91684400      5.22020400      0.22214000
