17
b3lypvdz=-272.525613825521 
C          -0.53839900      1.42451900     -1.91195300
C          -0.20986900     -0.15181600      0.78962500
C           0.12423500      1.92661800     -0.65172500
C          -1.37302200     -0.71226700      0.41148800
C           0.28516800      1.19166800      0.47999900
C           0.66239800      3.29905300     -0.73178600
C           0.72143300      4.18360700      0.27622400
H          -1.53627000      1.87891700     -2.04735200
H           0.06127100      1.71592800     -2.79173400
H          -0.66069600      0.33260100     -1.91912300
H           0.44684800     -0.73978100      1.44486000
H          -2.11470100     -0.17287200     -0.18231200
H          -1.63012600     -1.72769800      0.72393100
H           0.90848700      1.63508700      1.26515200
H           1.00887200      3.61933100     -1.72306900
H           0.33205500      3.94722300      1.27080100
H           1.15451600      5.17608100      0.12787400
