18
b3lypvdz=-310.594156231122 
C          -0.62493400      0.24604000      1.12709300
C          -2.15193400     -0.09380200     -0.78649400
C          -1.74006800     -0.44792000      0.45154200
C          -0.27111100      1.53968700      0.95589600
C          -2.35238600     -1.55662200      1.22865100
C           0.85820100      2.16646500      1.62304200
C          -3.28652500     -2.42873300      0.82311100
C           1.21824300      3.45215800      1.45948900
H          -0.05369100     -0.35230700      1.84818200
H          -1.63122200      0.68112900     -1.35155900
H          -3.00426000     -0.57368000     -1.27093300
H          -0.86703700      2.17547500      0.29065700
H          -1.97976900     -1.65210100      2.25508300
H           1.44582500      1.52611600      2.29228800
H          -3.70492300     -2.41964700     -0.18717800
H          -3.66815000     -3.19164800      1.50519500
H           0.65753000      4.11777600      0.79553400
H           2.08121100      3.87621600      1.97730000
