16
b3lypvdz=-234.461566347489 
C          -1.94150800      0.95111600     -2.10467400
C          -0.44015000      1.06108700     -1.79130600
C          -0.15195200      1.88117700     -0.56721300
C           0.50210500      1.43575700      0.51999600
C           0.81381800      2.20954400      1.72882300
C           1.03428000      3.53121500      1.79548500
H          -2.48874100      0.49845100     -1.26151700
H          -2.11371900      0.32625800     -2.99584900
H          -2.38534600      1.94215100     -2.29936400
H           0.06820700      1.51957500     -2.66143300
H          -0.00452400      0.05494400     -1.66990100
H          -0.53622400      2.90964500     -0.56990800
H           0.83225500      0.38869100      0.53003800
H           0.89245300      1.62188300      2.65242200
H           1.02646700      4.16276400      0.90191200
H           1.24487800      4.02314000      2.74809000
