18
b3lypvdz=-310.584059937715 
C          -0.02616000     -0.07288400      0.82242400
C           0.22065800      1.98589200     -0.64050700
C          -1.42023300     -0.38519600      0.43133600
C           0.41475700      1.35344300      0.68543100
C           0.84208500     -1.01142700      1.25028600
C          -0.01483700      3.28632800     -0.86395900
C          -2.15817300     -1.39867400      0.90679200
C           0.99300800      1.99747100      1.71812700
H           0.27940000      1.30599800     -1.50023100
H          -1.87751500      0.30719700     -0.28646400
H           1.86449700     -0.74303900      1.52348700
H           0.55438300     -2.06396000      1.32021500
H          -0.12612600      3.99993500     -0.04187300
H          -0.10801800      3.67893300     -1.87995600
H          -3.17729100     -1.57066000      0.55135200
H          -1.77462900     -2.08443500      1.66886300
H           1.39761000      3.00656400      1.60517300
H           1.08018400      1.52121300      2.69730600
