16
b3lypvdz=-309.461034261022 
C           0.17556200     -0.12136600      0.40277000
C           0.05576200      2.09698200     -0.70363900
C           0.38462700      1.33727000      0.43464500
C           0.57834100     -1.02340200      1.31075200
C           0.25185100      3.48011400     -0.73302400
C           0.90403800      2.01672600      1.55610600
C           0.77733500      4.13555900      0.38306300
C           1.09740100      3.39692000      1.52972500
H          -0.36355400     -0.48577600     -0.48015100
H          -0.35410500      1.58695200     -1.58011200
H           1.13851900     -0.74573200      2.20762600
H           0.35500600     -2.08458700      1.17795500
H          -0.00842200      4.04696300     -1.63027100
H           1.15219200      1.45736700      2.46069500
H           0.93928200      5.21612800      0.36240000
H           1.49946400      3.90458100      2.41025900
