14
b3lypvdz=-233.234758679618 
C          -0.25060400      0.02988200      0.71160700
C          -2.26946500      0.05683100     -0.71467400
C          -1.60645800     -0.44440600      0.34961000
C           0.27712500      1.23164100      0.43513400
C          -2.16073800     -1.50351200      1.22917100
C          -3.27542900     -2.22563400      1.04213700
H           0.35209000     -0.68436500      1.28542000
H          -1.79870100      0.78852500     -1.37298700
H          -3.28456700     -0.25557100     -0.96062600
H          -0.29127100      2.00518300     -0.08814800
H           1.29491000      1.48482600      0.73785600
H          -1.56938600     -1.70118800      2.13071200
H          -3.90869700     -2.10845800      0.15943200
H          -3.59030800     -2.97065200      1.77565400
