10
b3lypvdz=-155.885609383832 
C           0.77676000     -0.98574400      1.08738100
C          -0.03821100     -0.08175500      0.52158000
C           0.70045800      2.05150300      1.61226700
C           0.08408300      1.38084200      0.62608700
H           1.64986100     -0.68357400      1.67371800
H           0.59743000     -2.05761500      0.97120700
H          -0.86998800     -0.44435700     -0.09437200
H           0.76108300      3.14268400      1.60509500
H           1.15712600      1.53365300      2.46055200
H          -0.39680100      1.95356400     -0.17571600
