17
b3lypvdz=-272.527726769513 
C          -0.04122900     -0.15134300      0.53124000
C          -2.36496700      0.05190500     -0.42205100
C          -1.32864600     -0.66691700      0.03889000
C           0.20716400      1.30476000      0.41076900
C           0.86685900     -1.03833400      1.01355400
C           2.27095000     -0.78673900      1.46614000
C           0.61408800      2.11956700      1.39301000
H          -2.35396000      1.14466800     -0.45595600
H          -3.27116800     -0.44273300     -0.77850500
H          -1.41913500     -1.76008500      0.06047800
H          -0.00010800      1.74092100     -0.57485500
H           0.54275200     -2.08665700      1.04224600
H           2.96642400     -1.46682600      0.94374800
H           2.39168700     -1.00336000      2.54424300
H           2.59103700      0.24870000      1.28725400
H           0.77115300      3.18663600      1.21128800
H           0.79169900      1.75363700      2.40850600
