16
b3lypvdz=-234.453768984148 
C          -1.95821200      1.00859500     -1.92107200
C          -0.42586800      1.07799800     -1.71757000
C          -2.68708300      0.23792200     -0.85475900
C          -0.02120500      1.83400500     -0.47942500
C           0.73736900      1.36435000      0.51570200
C          -3.48696800     -0.80894300     -1.07827800
H          -2.17595400      0.56979000     -2.90962800
H          -2.34876300      2.04579400     -1.94383400
H           0.00415700      1.58882800     -2.59966400
H           0.00041100      0.06010100     -1.69864600
H          -2.53258800      0.58712200      0.17463200
H          -0.40034400      2.86377700     -0.41007800
H           1.13955400      0.34541400      0.49824300
H           0.99485200      1.98480300      1.37861300
H          -3.99633100     -1.32621800     -0.26033700
H          -3.66592700     -1.18733900     -2.09120000
