17
b3lypvdz=-272.52748277235 
C          -1.90753500      1.07903800     -1.71567800
C          -0.08407300     -0.29705300      0.36315900
C          -2.31898300      0.11722800     -0.64258400
C          -1.53432300     -0.52876800      0.25624800
C           0.76634500     -1.02083100      1.11013100
C          -2.14529900     -1.48529500      1.21064900
C          -3.07160900     -2.40590300      0.90989200
H          -0.82241500      1.24054200     -1.77895200
H          -2.24931900      0.71300700     -2.70163300
H          -2.39473200      2.05996800     -1.56879000
H           0.32199400      0.54138700     -0.20949000
H          -3.39563900     -0.07945700     -0.58670400
H           1.82942300     -0.76936700      1.14716300
H           0.43860600     -1.88377500      1.69492600
H          -1.78763900     -1.41857800      2.24542700
H          -3.43014800     -2.55161100     -0.11338200
H          -3.49925400     -3.04813200      1.68392100
