16
b3lypvdz=-234.464258083628 
C           0.14494100     -0.06031700      0.25663000
C          -0.36075600      2.25492100     -0.46332300
C           0.46922300      1.35066600      0.08510800
C           0.94155700     -1.00358500      0.80086000
C           2.34521700     -0.83016700      1.32020800
C           3.23842100     -2.04111900      1.01816200
H          -0.85056600     -0.36458800     -0.08750900
H          -1.35194300      1.97052900     -0.83105400
H          -0.07081800      3.30356000     -0.56555100
H           1.44694200      1.68942600      0.44293100
H           0.53386600     -2.01932100      0.88860200
H           2.31326300     -0.67939400      2.41754500
H           2.80236300      0.08060000      0.90202000
H           3.32814300     -2.21408900     -0.06723200
H           4.25145300     -1.89920000      1.42756600
H           2.82289400     -2.95912100      1.46783700
