13
b3lypvdz=-195.182347772607 
C          -0.04267200     -0.29953400      0.37897700
C          -2.32837100      0.13948500     -0.48067900
C          -1.44549700     -0.63317900      0.17414900
C           0.84309000     -1.10242700      0.99770700
C           2.29440000     -0.79897500      1.20203600
H           0.29622000      0.66666800     -0.01780700
H          -2.03323600      1.10312700     -0.90826200
H          -3.36743300     -0.16979400     -0.61613400
H          -1.77773500     -1.59364500      0.58737500
H           0.48498900     -2.06616700      1.38365100
H           2.93517300     -1.53653300      0.68622500
H           2.57087300     -0.85120600      2.27085700
H           2.55929800      0.20108100      0.82390300
