10
b3lypvdz=-135.071720480578 
N           2.89934600     -2.29674200     -0.65274100
C           3.39439600     -3.64102000     -0.92146200
C           3.41078100     -1.30512100     -1.58958900
H           3.17969700     -2.02855000      0.29246500
H           2.97257700     -4.34763200     -0.18904400
H           4.50525100     -3.74391700     -0.90189400
H           3.05157000     -3.96074900     -1.92131400
H           3.04254300     -1.53808800     -2.60448900
H           4.52329200     -1.24455100     -1.64553500
H           3.02564700     -0.30743000     -1.32199600
