14
b3lypvdz=-233.239535201239 
C          -0.08019800     -0.44938600      0.20344500
C          -2.29171100      0.24424000     -0.59172000
C          -1.55106100     -0.47788600      0.27522700
C           0.75076300     -1.21232700      0.93132000
C          -2.18043700     -1.29885200      1.33851200
C          -3.17549400     -2.17478600      1.15056000
H           0.34129300      0.25480900     -0.52303100
H          -1.81551700      0.84140700     -1.37434500
H          -3.38209300      0.26479400     -0.53483600
H           1.83442300     -1.13465900      0.81193200
H           0.37874000     -1.94275800      1.65434800
H          -1.76621000     -1.17726700      2.34696600
H          -3.59186100     -2.36760900      0.15777800
H          -3.59683700     -2.73582000      1.98904500
