13
b3lypvdz=-174.352707842895 
N           2.87862000     -2.29701400     -0.64286900
C           3.38153300     -3.63175700     -0.93254500
C           3.39357800     -1.31740100     -1.58858600
C           3.17582800     -1.92069300      0.73101800
H           2.91257700     -4.36390200     -0.25581400
H           4.49082400     -3.71563000     -0.81863300
H           3.11854200     -3.91657500     -1.96486900
H           3.10665600     -1.60146000     -2.61513700
H           4.50600700     -1.21416400     -1.55527100
H           2.95073800     -0.32896500     -1.38175800
H           2.76129800     -0.92189400      0.94635800
H           4.27165500     -1.89951900      0.94962600
H           2.70344300     -2.63342600      1.42617900
