17
b3lypvdz=-272.52481346088 
C           0.18130500     -0.05954200      0.25079400
C          -0.61880900      2.11079700     -0.52986300
C           0.11268900      1.41206500      0.36777600
C           1.03994400     -0.94028700      0.80355100
C           2.24108700     -0.70478600      1.67432000
C           0.75428500      2.11351200      1.50701000
C           1.43107000      3.26754400      1.42467000
H          -0.58500600     -0.48503500     -0.40680900
H          -1.11058500      1.60876800     -1.36754800
H          -0.74998300      3.19106900     -0.44045500
H           0.85563400     -1.99457200      0.55891800
H           3.11392600     -1.23288200      1.25053000
H           2.09026600     -1.13019200      2.68414400
H           2.50246500      0.35574200      1.78028200
H           0.63224600      1.63678000      2.48756200
H           1.61509200      3.75541000      0.46293100
H           1.83587400      3.75251100      2.31688800
