14
b3lypvdz=-233.241551300793 
C          -0.34211000      0.11742600      0.86530900
C          -2.05101500     -0.36696400     -0.92666500
C          -0.11484400      2.25637000     -0.45232000
C          -1.60114200     -0.41908900      0.33947100
C           0.31692600      1.24730800      0.50374800
C           0.63848900      3.30827300     -0.82271900
H           0.10222500     -0.47266400      1.67562400
H          -1.46865100      0.08468400     -1.73334000
H          -3.01562700     -0.80509700     -1.19528900
H          -1.12001000      2.15324900     -0.87097200
H          -2.21301600     -0.95614900      1.07588400
H           1.26450500      1.45731600      1.01376000
H           1.65159800      3.45264200     -0.43261000
H           0.26377300      4.05719700     -1.52448100
