18
b3lypvdz=-310.588348679742 
C          -0.17735000     -0.13506600      0.91210700
C          -1.48630100     -0.60578100      0.39510300
C           0.07291800      1.31066500      0.76886600
C           0.73191500     -0.99160400      1.42887100
C          -2.17794900     -1.65900600      0.85016900
C           0.92449300      2.05277600      1.51104600
C           0.76861600      4.28785100      0.36122400
C           1.22146900      3.47674500      1.33360500
H          -1.91309400     -0.00600400     -0.41802500
H          -0.51859800      1.81148100     -0.00598700
H           1.70515000     -0.64320600      1.77749800
H           0.52240600     -2.06091800      1.49023300
H          -3.12991900     -1.95007100      0.40064700
H          -1.82194200     -2.25456200      1.69568900
H           1.45698000      1.55917900      2.33048800
H           0.09639300      3.93577600     -0.42631700
H           1.06736900      5.33749600      0.32073200
H           1.89874700      3.90334900      2.08235100
