17
b3lypvdz=-272.527439827563 
C          -0.62780800      1.36922100     -2.06263200
C           0.36554800     -0.16326800      0.44144200
C          -0.27251800      1.93911000     -0.72072200
C           0.19939900      1.29950400      0.37949800
C           0.95194200     -0.83917400      1.44394900
C           0.53893500      2.08219900      1.59106300
C           1.22954700      3.22986800      1.60942000
H          -1.69514400      1.54827700     -2.29025300
H          -0.05402000      1.88658000     -2.85156700
H          -0.43123900      0.29177500     -2.16016100
H          -0.03145700     -0.73310700     -0.40390300
H          -0.42031100      3.02199900     -0.63579500
H           1.39117900     -0.33622800      2.30884100
H           1.02418200     -1.92939400      1.41594400
H           0.19309900      1.66644500      2.54556400
H           1.63958900      3.67250000      0.69729500
H           1.41267700      3.76159500      2.54721600
