9
b3lypvdz=-117.82437146209 
C           0.83468000     -1.01889200      0.96490500
C           2.28735500     -0.73259300      1.22157600
C          -0.08703200     -0.10426700      0.65014200
H           0.52511300     -2.06942600      1.05183800
H           2.93082000     -1.30218900      0.52798200
H           2.57517900     -1.03917000      2.24412400
H           2.51855200      0.33854500      1.10404100
H          -1.12911700     -0.38812800      0.47468500
H           0.16944900      0.95702000      0.55270700
