17
b3lypvdz=-272.494927668357 
C           3.88019100     -0.62087200      1.19258400
C           4.97607000     -0.82147400      0.15410700
C           4.30523100     -2.02152100      0.76946500
C           0.22915600      0.87151400     -0.02213000
C           2.59521600     -0.10052000      0.78494400
C           1.51778000      0.33920000      0.42958400
C           0.24509900      1.30529300     -1.50075900
H           4.21511700     -0.29381800      2.18190000
H           5.99851200     -0.58415800      0.45947200
H           4.73290600     -0.56185900     -0.87872100
H           3.60045600     -2.59227800      0.16019500
H           4.86800700     -2.61489600      1.49485300
H          -0.04964200      1.73111900      0.61413200
H          -0.55732600      0.11115100      0.13805200
H           0.49308600      0.45440900     -2.15575300
H          -0.73784500      1.70200300     -1.80431700
H           0.99978500      2.08880800     -1.67310800
