9
b3lypvdz=-353.369833674765 
F           0.59992200      0.20599700     -2.21036000
F           1.31466100      2.22025700     -1.64567000
O          -0.18388900      1.99248900      0.83205100
C           0.19301300      0.91838800     -0.00091400
C           0.30568400      1.31870600     -1.46430200
H          -1.09112800      2.24983500      0.60990400
H          -0.49696400      0.05454700      0.06336700
H           1.18730000      0.58300900      0.33333500
H          -0.62040000      1.76557100     -1.87061000
