13
b3lypvdz=-331.501703535563 
F          -0.93100000      2.05669100     -1.75204900
O          -0.07422000      1.78818700      0.85516900
C           0.19319400      0.77563400     -0.11304100
C          -0.86173600     -0.30482700     -0.08050200
C           0.29552500      1.41644700     -1.49356700
C          -0.61637500     -1.59786500      0.13784300
H          -0.80027500      2.31945800      0.48897000
H           1.17427200      0.34159700      0.14650100
H          -1.88564400      0.04389200     -0.26173500
H           0.46916600      0.67253800     -2.28756200
H           1.08061100      2.19095000     -1.51314800
H          -1.41930600     -2.33974500      0.15001800
H           0.39908800     -1.96585800      0.32010300
