8
b3lypvdz=-178.968886340215 
C           0.19017400      0.83907400     -0.00847500
F           1.28619700      2.29762500     -1.55330600
C           0.31553900      1.29860000     -1.44851500
H          -0.10384100      1.67771500      0.64281700
H          -0.57262900      0.04766100      0.08047900
H           1.14900600      0.43689600      0.35734900
H           0.61491700      0.46671100     -2.11152400
H          -0.63766300      1.71401800     -1.82382400
