10
b3lypvdz=-615.441853876709 
Cl         -1.41866300     -4.41030300     -0.21608900
C          -2.24400400      0.29711600      0.53079800
C          -3.09649700     -0.73647200      0.62595600
C          -1.64293300     -2.69537800      0.04132400
C          -2.82350800     -2.16080900      0.38530400
H          -2.58085200      1.31394500      0.74540200
H          -1.19673700      0.17605800      0.23872300
H          -4.12776400     -0.51945900      0.92477300
H          -0.72440200     -2.12634400     -0.11139800
H          -3.67264200     -2.83905500      0.51130700
