14
b3lypvdz=-332.412280883148 
F          -0.91796300      1.99963600     -1.72920500
C           0.21145400      0.71145200     -0.06249000
C           2.66981400     -0.10266300      0.61389000
C          -0.85070200     -0.36974000     -0.13820600
C           1.54413900      0.24684600      0.33110000
C           0.32514900      1.46212000     -1.40593000
C          -0.70336500     -1.64807900      0.21269200
H          -0.12659100      1.46482200      0.67589000
H           3.66309400     -0.41418400      0.87131200
H          -1.80363500     -0.00299700     -0.53230900
H           0.63091900      0.77064900     -2.20838700
H           1.04883000      2.28963500     -1.32878200
H          -1.53410600     -2.35274100      0.12468800
H           0.24466400     -2.02935600      0.60103700
