6
b3lypvdz=-169.813892784982 
C          -1.44653900      2.44947700      0.93729100
O          -1.64263500      3.59878900      1.27490400
N          -2.41807000      1.51386500      0.74435600
H          -0.42612400      2.03005900      0.74376200
H          -2.20017600      0.57945700      0.42376700
H          -3.38855500      1.78575300      0.86512000
