16
b3lypvdz=-234.461225561233 
C           0.11753800      0.98960900     -0.05396300
C          -0.92976500     -0.08296400      0.03183100
C          -2.13138100      0.05528100      0.62182800
C           0.53102800      1.31524600     -1.50067800
C          -3.18809400     -0.95952200      0.74569500
C          -3.12760300     -2.25919400      0.41141400
H          -0.24457500      1.90069000      0.45295500
H           1.01670400      0.65689600      0.50081100
H          -0.67047200     -1.04173800     -0.43675000
H          -2.37191300      1.03064100      1.06284700
H           0.92447100      0.42080600     -2.01355300
H          -0.32730000      1.68660400     -2.08439900
H           1.31934300      2.08552100     -1.52547500
H          -4.12689600     -0.58629600      1.17135600
H          -2.22376200     -2.71690000     -0.00111600
H          -3.99052400     -2.91478000      0.54799600
