12
b3lypvdz=-269.101113896404 
O          -0.21657000      1.80405500      1.02379000
C           0.17186600      0.83185200      0.04223400
C           2.63489200     -0.04683200      0.62088800
C          -0.86383200     -0.27530600     -0.05646600
C           1.51888500      0.35766700      0.38003400
C          -0.65822100     -1.58335300      0.09616500
H          -1.00611500      2.24866400      0.68069100
H           0.23898100      1.31830200     -0.95441900
H           3.62171400     -0.40036600      0.84739800
H          -1.86974100      0.09827300     -0.28857500
H          -1.48197700     -2.29635300      0.00865000
H           0.33571900     -1.98080300      0.31701000
