11
b3lypvdz=-231.046335779972 
O          -0.12401500      1.99236400      0.83070600
C           0.22533300      0.89818700     -0.02329200
C           2.57258300     -0.07772200      0.82320500
C           1.51166500      0.36794400      0.44356800
C           0.30435700      1.32379100     -1.49678400
H          -0.98724500      2.31523200      0.53116600
H          -0.53162300      0.09270000      0.08107500
H           3.51276600     -0.46394300      1.16515400
H           0.59432100      0.48007000     -2.14372300
H          -0.67478900      1.70181200     -1.84055600
H           1.04384700      2.13016400     -1.62061800
