13
b3lypvdz=-323.586586631439 
O          -0.09170500      2.02228800      0.87398100
O          -1.60552400      3.51803900      1.53980700
N          -2.37081000      1.60127500      0.55881300
C           0.25191300      0.90560800      0.03872800
C           0.20637900      1.25297100     -1.44293700
C          -1.38161500      2.44466600      1.03241300
H          -2.20256600      0.60224400      0.52765400
H          -3.29194700      1.86356100      0.89341500
H          -0.37971400      0.02707000      0.26753100
H           1.27299400      0.64228900      0.35139100
H           0.54661400      0.39621900     -2.04753500
H          -0.81569600      1.51567200     -1.75627100
H           0.86547700      2.10849900     -1.65458900
