13
b3lypvdz=-393.582531215201 
F           0.61396200      0.41156900     -2.37798000
F           1.17932500      2.37694800     -1.54838100
C           3.91312300     -0.59824600      1.22384900
C           0.23266800      0.79076300     -0.05270400
C           2.60485000     -0.11480200      0.78865000
C           1.52766900      0.29252100      0.40863500
C           0.26035000      1.36712300     -1.46472400
H           4.65272900     -0.51181900      0.41033400
H           3.87227400     -1.65675400      1.53078500
H           4.29075100     -0.01702400      2.08034500
H          -0.13492400      1.59177400      0.61310700
H          -0.52861300     -0.00885000     -0.03024100
H          -0.71966500      1.77759700     -1.76597500
