12
b3lypvdz=-355.534542085208 
F           0.67589100      0.53698700     -2.42127300
F           1.17525500      2.44671300     -1.42902000
C           0.23747100      0.72186200     -0.09894300
C          -0.84820800     -0.31428700     -0.01429200
C           0.27232200      1.41472500     -1.45068100
C          -0.64539200     -1.62468900      0.13357700
H           0.08179300      1.50755100      0.66140900
H           1.22992900      0.27401700      0.07471800
H          -1.87687200      0.06342600     -0.08877100
H          -0.70317100      1.83242300     -1.75809700
H          -1.48014100     -2.32811400      0.18780900
H           0.36392200     -2.04241300      0.20926400
