13
b3lypvdz=-249.251896134059 
N          -2.64841200      1.46553800      0.74973800
C           0.29633800      0.88576700      0.06080400
C           2.53861400     -0.27472900      0.96092600
C          -0.87885200     -0.06842300     -0.01141500
C           1.52400300      0.25083100      0.55416300
C          -2.14434100      0.23059500      0.33394300
H          -1.95760500      2.12077000      1.10676800
H          -3.44648600      1.40263300      1.37492700
H           0.06453500      1.74902200      0.71133200
H           0.50794500      1.31950900     -0.93732600
H           3.43481000     -0.74017100      1.32055800
H          -0.67223200     -1.06736700     -0.40056900
H          -2.91391800     -0.54147600      0.22855300
