15
b3lypvdz=-271.273974277203 
C           0.24157900      0.86175200      0.15153200
C           2.74130600     -0.06403600      0.38257500
C          -0.86321300     -0.16930100      0.17760400
C           1.60567000      0.34663200      0.27873800
C          -0.69730800     -1.49742500      0.28660100
C          -1.75561200     -2.51813400      0.31310900
C          -3.07704500     -2.33547100      0.16520100
H           0.06070500      1.60601100      0.95087000
H           0.16715800      1.44195500     -0.78930100
H           3.74433900     -0.42989400      0.48060200
H          -1.86904800      0.25724500      0.09407700
H           0.32707300     -1.87374400      0.37434300
H          -1.39701400     -3.54082300      0.47681600
H          -3.51699200     -1.34946700     -0.00904300
H          -3.76920000     -3.17909900      0.20987600
