13
b3lypvdz=-430.720186034989 
F          -0.89014000      2.07645600     -1.75635700
F           1.30202700      2.28194700     -1.61113900
O          -0.07031400      1.83420900      0.83657300
C           0.19460800      0.80246200     -0.09917700
C          -0.85194300     -0.28456700     -0.05120900
C           0.28359300      1.38577800     -1.51093700
C          -0.58323900     -1.57959000      0.12444700
H          -0.76693800      2.38957300      0.44820900
H           1.18319600      0.38593400      0.15288600
H          -1.88436300      0.06205300     -0.17896200
H           0.40183400      0.62449300     -2.29875400
H          -1.37449300     -2.33218800      0.15665300
H           0.44387300     -1.93486200      0.25426500
