12
b3lypvdz=-157.109342295965 
C          -0.63643300     -1.63196700      0.12442000
C           0.23806900      0.72507000     -0.09554100
C          -0.83954500     -0.32104100     -0.03058500
C           0.28394200      1.45022200     -1.45084100
H          -1.46430400     -2.34526300      0.15753100
H           0.37363700     -2.04350000      0.23125000
H           0.06229700      1.47464100      0.69905800
H           1.21540800      0.25767700      0.11704200
H          -1.86940700      0.04859900     -0.13803400
H           0.52731000      0.74607700     -2.26320600
H          -0.69036100      1.91039500     -1.69073000
H           1.03918600      2.25289100     -1.45236300
