15
b3lypvdz=-308.393737720134 
O          -0.17349300      2.13453700      0.62314500
C           0.14701600      0.95952100     -0.12494600
C           2.37129300     -0.09258900      0.95859900
C          -0.96324800     -0.08670600     -0.03354000
C           1.37387300      0.39424100      0.47328900
C          -2.02698900      0.01579000      0.76551000
C           0.41844600      1.32480800     -1.60044900
H          -0.90805300      2.56371000      0.15647000
H           3.25679800     -0.51733600      1.38898900
H          -0.83113600     -0.96074900     -0.68130000
H          -2.14870300      0.87689800      1.42759600
H          -2.79509300     -0.76112500      0.79064900
H           0.74156800      0.44475500     -2.17771800
H          -0.50052800      1.72404000     -2.06259400
H           1.20704900      2.09010400     -1.65440000
