15
b3lypvdz=-710.061439508971 
Cl         -0.94696200     -4.32270800      0.04395400
N          -2.62225700      1.61322800      0.53208000
C           0.20582300      0.74972000     -0.03126500
C          -0.96496200     -0.17958100      0.21079200
C          -2.20906400      0.28480300      0.49222600
C          -0.65968400     -1.61309700      0.09657900
C          -1.49159800     -2.65999400      0.21711400
H          -1.88927900      2.30154700      0.67498300
H          -3.41731400      1.79146000      1.13805000
H           1.01959800      0.57744900      0.69560100
H           0.63542200      0.58858800     -1.03679500
H          -0.07029100      1.81351900      0.02744300
H          -3.03165600     -0.41976500      0.64714000
H           0.38830600     -1.84469600     -0.12411800
H          -2.55878100     -2.59747200      0.43251700
