13
b3lypvdz=-195.176169353454 
C           0.27670200      0.84991900     -0.01822500
C          -0.82583100     -0.15198300      0.14613800
C          -0.69676800     -1.47682100     -0.04290300
C          -1.74652800     -2.50033500      0.09262400
C          -3.03395500     -2.31700200      0.42856000
H           0.47307100      1.38748400      0.92818800
H           1.21506300      0.37317200     -0.34426200
H           0.00436000      1.62233300     -0.76013300
H          -1.79793400      0.25660100      0.45068300
H           0.28851000     -1.85638500     -0.34108700
H          -1.41712800     -3.52442600     -0.11919000
H          -3.44787500     -1.32964500      0.65404900
H          -3.72198500     -3.16301300      0.49305800
