11
b3lypvdz=-429.470483299954 
F           0.62176200      0.29987200     -2.30570600
F          -0.91671600      1.81120400     -1.83937400
O          -0.13150600      1.99241300      0.79160900
C           0.23926700      0.88552600     -0.01717900
C           2.57715800     -0.08775000      0.83610500
C           1.51923300      0.35578300      0.44864700
C           0.32648200      1.34076000     -1.48015100
H          -0.97399000      2.31966300      0.43705900
H          -0.52235200      0.07883100      0.02577000
H           3.51447900     -0.47662400      1.18419300
H           1.06228400      2.14822300     -1.62607300
