18
b3lypvdz=-289.791244503069 
N          -2.26444000      1.34210000      1.30907000
C           0.25048700      0.77299200     -0.17642300
C          -0.74859700     -0.27175200      0.28750800
C          -2.15474600      0.17374500      0.53220100
C           0.03091900      1.21043400     -1.63440100
C          -0.40175300     -1.55485000      0.47679800
C          -3.21502500     -0.45131100     -0.02020800
H          -1.64704900      1.34677100      2.11980700
H          -3.21828100      1.54593100      1.59972300
H           0.17727800      1.66371200      0.46968600
H           1.26889300      0.36648400     -0.05829300
H           0.16196100      0.36107100     -2.32535500
H          -0.98416100      1.61400900     -1.78180200
H           0.74998900      1.99511200     -1.92055900
H          -1.12769900     -2.29481000      0.82021900
H           0.61999100     -1.89651400      0.28664300
H          -3.07055500     -1.26718100     -0.72779900
H          -4.23821100     -0.13124400      0.19848500
