15
b3lypvdz=-271.397256750887 
C           0.19481300      0.81671800      0.00627500
C          -0.89526500     -0.22430500      0.14481800
C          -2.22021100      0.16062800      0.41060300
C          -0.61208900     -1.59251000      0.02350600
C          -3.23277000     -0.79275300      0.54293800
C          -1.62262600     -2.55135100      0.15685900
C          -2.93719500     -2.15423200      0.41534500
H           0.43629300      1.27043400      0.98361900
H           1.12038700      0.37881700     -0.39812100
H          -0.11481400      1.63027500     -0.66984300
H          -2.46514500      1.22248200      0.51512900
H           0.41153200     -1.91690800     -0.18658200
H          -4.25721700     -0.47090900      0.75014300
H          -1.38132400     -3.61312100      0.05092500
H          -3.72907100     -2.90116700      0.51648500
