13
b3lypvdz=-232.296504236232 
O          -0.03516700      1.78995400      0.89335100
C           0.18749700      0.79072100     -0.10730200
C          -0.86663200     -0.28920900     -0.04684300
C           0.27503700      1.41954900     -1.50130300
C          -0.62688000     -1.59147700      0.11925200
H          -0.87057600      2.23364000      0.67852300
H           1.16260500      0.34730200      0.15452400
H          -1.90209800      0.06194800     -0.16846100
H           0.57655100      0.67382500     -2.25433100
H          -0.70469300      1.82901400     -1.80862700
H           1.00463200      2.24450900     -1.50118400
H          -1.43454400     -2.32813000      0.14323200
H           0.39286800     -1.97224500      0.24096900
