12
b3lypvdz=-256.314019410842 
F          -0.95410700      2.07865900     -1.65671400
C           0.24571700      0.70517400     -0.12306600
C          -0.83335100     -0.34214100     -0.09338300
C           0.28363500      1.46147600     -1.44681000
C          -0.63723400     -1.63703500      0.16626700
H           0.06811400      1.44822200      0.67661700
H           1.23447500      0.25040100      0.06256800
H          -1.84153700      0.02176000     -0.32282700
H           0.46991000      0.77835900     -2.29363200
H           1.05552500      2.25106800     -1.44245000
H          -1.46466500     -2.35142300      0.17144400
H           0.35921800     -2.03172000      0.39348700
