13
b3lypvdz=-430.717871672855 
F           0.91851000      0.73253600     -2.28270900
F           0.36302700      2.70507700     -1.44880700
O          -0.23318400      1.73291700      0.93696200
C           0.10571100      0.78272500     -0.03929300
C          -0.84383100     -0.38305500      0.07289500
C           0.02010200      1.36457800     -1.47791800
C          -0.48671600     -1.66712700      0.06555000
H          -0.13913000      2.61844100      0.54474700
H           1.15218200      0.42851400      0.05566200
H          -1.88601900     -0.05358800      0.15647500
H          -0.96379100      1.29596800     -1.96127300
H          -1.22355500     -2.47052900      0.12275400
H           0.56049400     -1.97145700      0.00105600
