10
b3lypvdz=-284.296940370884 
O          -0.12734200      2.10023300      0.64571100
O          -1.63994600      3.55629200      1.39742800
N          -2.38907100      1.52896100      0.64081700
C           0.14333700      0.84506700      0.02731400
C          -1.41042900      2.46011900      0.94512600
H          -2.16189800      0.54085100      0.67700000
H          -3.28618500      1.76343200      1.05356700
H           0.00005000      0.00508800      0.73333900
H           1.20041200      0.87279200     -0.26998100
H          -0.47872900      0.68536500     -0.86892200
