13
b3lypvdz=-422.794788940042 
F          -1.11850800      0.72013600     -1.80181100
O          -0.11541800      2.33455300      0.59815500
O          -1.63447500      3.61156000      1.61235300
N          -2.34554600      1.63725600      0.66829900
C           0.27555800      1.03813400      0.14086300
C           0.20940400      0.89616100     -1.36342500
C          -1.40719500      2.60250800      0.99067100
H          -2.24267000      1.19524400     -0.24491400
H          -3.28770300      1.96921500      0.85508900
H          -0.31255900      0.24761300      0.63439300
H           1.33033600      0.92592800      0.44219000
H           0.78217400      0.01064300     -1.68816700
H           0.60620300      1.79754900     -1.85879800
