16
b3lypvdz=-333.664289483811 
F          -0.99732600      2.23571200     -1.39875600
C           0.24548900      0.67641400     -0.04751600
C          -0.80219000     -0.41527900      0.08472300
C          -2.20805400      0.04523000      0.19699400
C           0.17263900      1.46290000     -1.35271800
C          -0.43833400     -1.71069200      0.06710000
C          -3.26424700     -0.67603700      0.59935100
H           0.15521600      1.39904300      0.78464100
H           1.25382500      0.23316800      0.01745100
H          -2.37109800      1.08874500     -0.08305900
H           0.16474300      0.78633300     -2.22547200
H           1.02947600      2.15466900     -1.43755800
H          -1.17140400     -2.51985300      0.11239600
H           0.61268900     -2.00379700     -0.00146700
H          -3.17956800     -1.71914000      0.91885100
H          -4.26105600     -0.22841400      0.62843800
