14
b3lypvdz=-332.409888213107 
F           1.32954900      2.29388100     -1.68714200
C           0.17706300      0.90090300     -0.10222600
C           2.44819000     -0.08172800      0.93108300
C          -0.93241500     -0.12839800      0.02106700
C           1.42967300      0.37727900      0.46165900
C          -2.07978400      0.06817400      0.67478600
C           0.35841000      1.30929800     -1.57567400
H          -0.11173700      1.80900500      0.45558600
H           3.35459300     -0.48125200      1.34130600
H          -0.73446800     -1.09079500     -0.46548600
H          -2.29735000      1.01316700      1.18302400
H          -2.84396100     -0.71152300      0.73319800
H           0.67363400      0.44341200     -2.18363500
H          -0.59189700      1.70827700     -1.96944600
