10
b3lypvdz=-247.163921352772 
O          -1.61415400      3.61859000      1.15797100
N          -2.42580700      1.50164800      0.85828300
C          -2.22814700      0.14821600      0.60138700
C          -3.18621300     -0.78663200      0.58724400
C          -1.42894600      2.44765600      0.90388700
H          -3.36283800      1.84078300      1.06505200
H          -1.18291200     -0.10541700      0.39789300
H          -2.92858800     -1.82314800      0.36982600
H          -4.23370200     -0.54335700      0.78663400
H          -0.42839200      2.00796200      0.67652300
