5
b3lypvdz=-40.480455099075 
C           3.87521400     -0.57454400      1.17033700
H           4.62534000     -0.26089700      0.43021000
H           3.78293200     -1.67123100      1.15837100
H           2.90424800     -0.12054300      0.92131900
H           4.18776700     -0.24218400      2.17176300
