14
b3lypvdz=-311.643740027676 
F           1.14383200     -0.02447700     -2.05383800
N          -2.71219300      1.43534900      1.12634500
C           0.10697900      0.93711100     -0.11599100
C          -1.08502800      0.01520900     -0.08248200
C          -2.28088000      0.26263500      0.48603700
C           0.65022000      1.17265100     -1.52426200
H          -1.96348900      2.02467700      1.48279900
H          -3.39439700      1.26539200      1.86101200
H          -0.13018400      1.92370400      0.32095300
H           0.93740700      0.51880200      0.48588300
H          -0.95942100     -0.94229300     -0.59438400
H          -3.06557700     -0.49876600      0.41051200
H          -0.14224600      1.54063000     -2.19947900
H           1.48427800      1.89757800     -1.51630500
