6
b3lypvdz=-78.533080465121 
C          -0.91964800     -0.23806400      0.14837200
C          -2.15165100      0.14886400      0.48492800
H          -0.10561400      0.48506600      0.03505000
H          -0.68154600     -1.29093000     -0.03443700
H          -2.38975400      1.20173000      0.66773700
H          -2.96568600     -0.57426600      0.59825000
