6
b3lypvdz=-538.09074543266 
Cl         -1.31477300     -4.25354400     -0.18463600
C          -0.63689700     -1.62145200     -0.07044600
C          -1.59209700     -2.53898100      0.04999600
H          -0.87981600     -0.56816200      0.09402300
H           0.39010100     -1.88699400     -0.33172400
H          -2.62621900     -2.30806700      0.31438600
