17
b3lypvdz=-309.647080438214 
O          -0.18309600      2.16697400      0.63500000
C           0.06082000      0.91667300      0.00686400
C          -1.06008900     -0.10184000      0.22759400
C          -2.22894900      0.26910500      0.77454300
C           0.37854400      1.11212600     -1.48347000
C          -0.73187800     -1.48933900     -0.17051800
C          -1.50964900     -2.57812000     -0.07868500
H          -0.80559200      2.65524900      0.07418900
H           0.96431500      0.52311200      0.50939400
H          -2.39014900      1.29540700      1.10487900
H          -3.04291500     -0.44017000      0.93939300
H           0.64800000      0.16725300     -1.97968400
H          -0.50422800      1.51997900     -2.00841100
H           1.21434200      1.81914700     -1.60302500
H           0.27945500     -1.63113200     -0.56934000
H          -1.13915500     -3.55434900     -0.39935800
H          -2.52967600     -2.54077400      0.31313500
