15
b3lypvdz=-250.50448115057 
N          -2.59939800      1.62927000      0.57706400
C           0.21839100      0.74855600     -0.00034900
C          -0.96214200     -0.17549900      0.21365900
C          -2.20074600      0.29508900      0.50469700
C          -0.67961700     -1.61312200      0.06913000
C          -1.50612600     -2.67199100      0.14982400
H          -1.85608800      2.30157200      0.74237100
H          -3.38844300      1.80056800      1.19313500
H           1.03109800      0.54383600      0.71978300
H           0.64756800      0.61219600     -1.01024000
H          -0.04203000      1.81450800      0.09027400
H          -3.02865300     -0.40744100      0.64043400
H           0.37561500     -1.83308400     -0.14128100
H          -1.11895000     -3.68484800      0.01678100
H          -2.57887900     -2.57990800      0.34641900
