10
b3lypvdz=-453.515005615661 
F           0.63809200      0.35643300     -2.34514400
F          -0.90646700      1.80550700     -1.84087100
F           1.19619500      2.32407200     -1.61001800
C           0.24371500      0.82224600     -0.03666500
C           2.59280200     -0.09835900      0.84140300
C           1.52900300      0.31964900      0.44051100
C           0.30242300      1.32620000     -1.47134600
H          -0.09954600      1.66035700      0.59326700
H          -0.52460800      0.03290000      0.01880000
H           3.53729100     -0.46720400      1.19216400
