12
b3lypvdz=-355.534135994798 
F          -0.49564100      1.96983700     -2.17603000
F           1.59924900      2.02247600     -1.49720400
C           0.02504400      0.96206000     -0.08224600
C          -1.05160100     -0.08451600      0.01301700
C          -2.17376400      0.01418900      0.73050800
C           0.46118100      1.25706200     -1.50782400
H          -0.28895000      1.90826100      0.38825200
H           0.92735900      0.61064800      0.45101800
H          -0.85226100     -1.01601900     -0.53405600
H          -2.41881000      0.91697800      1.29944400
H          -2.89074600     -0.80980000      0.78010500
H           0.67493900      0.34582300     -2.09548400
