13
b3lypvdz=-232.299174847421 
O          -0.25137200      2.13807800      0.66310700
C           0.06398600      0.94874600     -0.05294400
C          -1.05356800     -0.07186700     -0.00903600
C          -2.17082900      0.04993600      0.71333300
C           0.49610600      1.25695100     -1.49344900
H          -0.98109600      2.56763000      0.18876900
H           0.93250300      0.52609300      0.48610900
H          -0.89478100     -0.96387600     -0.62874500
H          -2.33299900      0.92573300      1.34770700
H          -2.94629700     -0.72021500      0.70259200
H           0.84082300      0.34804100     -2.01438400
H          -0.34670300      1.67707300     -2.07101500
H           1.31622800      1.99168000     -1.49514500
