12
b3lypvdz=-670.776011058144 
Cl         -1.44078600     -4.44999300     -0.25408400
N          -2.50102100      1.60933800      0.74650300
C          -2.19676500      0.26614700      0.58434900
C          -3.07429200     -0.76272500      0.66110300
C          -1.63091200     -2.72233800      0.00652500
C          -2.79439900     -2.17176700      0.39294900
H          -1.74246800      2.19019800      1.09014100
H          -3.37752100      1.80806200      1.22235800
H          -1.15391500      0.08954700      0.30047500
H          -4.10515300     -0.53736400      0.95715800
H          -0.70963300     -2.17039700     -0.18488600
H          -3.64153500     -2.84950900      0.53870800
