17
b3lypvdz=-272.50310398339 
C           3.96948400     -0.55403600      1.10061200
C           0.19758000      0.71498200     -0.05273900
C           2.61703700     -0.15549300      0.71261000
C          -0.89725400     -0.33578100     -0.10226600
C           1.50227000      0.21081700      0.39888000
C           0.34475200      1.41956000     -1.42617700
C          -0.77841300     -1.62844900      0.20588900
H           4.72434100      0.01680700      0.53625200
H           4.14929500     -1.62456500      0.90579900
H           4.15017500     -0.37241600      2.17356100
H          -0.13563500      1.48491200      0.67141400
H          -1.86535300      0.05880300     -0.43627300
H           0.71474600      0.70588000     -2.17876100
H          -0.62576700      1.81688800     -1.76645100
H           1.05786000      2.25485300     -1.35651800
H          -1.63267900     -2.30688100      0.13744900
H           0.17606100     -2.04568200      0.53821800
