12
b3lypvdz=-306.297536519461 
O          -0.54690900      1.54750000      1.11870800
O          -1.49495600      3.44765900      1.83086500
C          -0.25418000      0.75027500     -0.04859500
C          -0.99992300     -0.54903900      0.01410400
C          -0.41231600     -1.74427900      0.10492500
C          -1.16112900      2.73660100      0.92632700
H           0.83426600      0.58447100     -0.06896400
H          -0.53931300      1.31974600     -0.95303700
H          -2.09315000     -0.47053400     -0.01887100
H          -0.99822800     -2.66576600      0.13994200
H           0.67727200     -1.84458100      0.14877600
H          -1.31103500      2.97344700     -0.15638000
