10
b3lypvdz=-155.874963047095 
C           0.17705600      0.83319100      0.00759300
C           2.57825300     -0.08187700      0.76233300
C           1.48916600      0.33229100      0.42019300
C           3.89104900     -0.57887600      1.17766700
H          -0.11452000      1.71783000      0.59704700
H          -0.60317900      0.06570900      0.14503400
H           0.17833400      1.12670700     -1.05619600
H           4.67278600     -0.28905800      0.45628400
H           3.89561000     -1.67955900      1.25485800
H           4.17634400     -0.17125800      2.16188700
