14
b3lypvdz=-270.361255970794 
O          -0.22242100      2.25312000      0.29015700
C           0.24539300      0.93239500      0.10822200
C          -0.79605900     -0.14203900      0.26034900
C          -2.06036800      0.06942100      0.66511300
C          -3.10395700     -0.95533100      0.81553800
C          -3.16858000     -2.14063300      0.18777100
H          -0.89703300      2.41612000     -0.38759900
H           1.03836900      0.78635300      0.86467800
H           0.74991600      0.80588500     -0.87543300
H          -0.45544300     -1.15902400      0.02864500
H          -2.34214700      1.08974000      0.94944700
H          -3.91212500     -0.69440900      1.50984300
H          -2.42017600     -2.44876600     -0.54881700
H          -3.97977000     -2.84343300      0.39228700
