13
b3lypvdz=-430.724142917884 
F           0.85299000      0.21648200     -2.17448800
F           1.41897700      2.23873000     -1.48738100
O          -0.33202800      2.10309600      0.65357700
C           0.05914000      0.94709500     -0.05648100
C          -1.02197300     -0.09759600     -0.00271300
C          -2.16571300      0.03011800      0.67318400
C           0.39598200      1.31499900     -1.50257600
H           0.38074500      2.75348900      0.55818200
H           0.99510100      0.51285100      0.35786400
H          -0.79550100     -1.00656400     -0.56860000
H          -2.38850400      0.93722900      1.23835300
H          -2.90581700     -0.77412300      0.68127100
H          -0.45210000      1.75619500     -2.05239300
