11
b3lypvdz=-193.921649515882 
C           0.19274400      0.82300900     -0.05644400
C           2.55351200     -0.06682700      0.84150200
C          -0.93347200     -0.17829700      0.09689100
C           1.48536200      0.33789800      0.43555400
C          -2.14854800      0.12334700      0.55810300
H          -0.07301900      1.76439700      0.45432800
H           0.30804400      1.07853800     -1.12808100
H           3.49719900     -0.42617600      1.20143000
H          -0.70377800     -1.20085700     -0.22403100
H          -2.40284600      1.13457600      0.89257600
H          -2.93649900     -0.63160900      0.62167400
