15
b3lypvdz=-250.505441809077 
N          -2.62864900      1.42687100      0.72787500
C           0.28899700      0.87095800      0.06331700
C          -0.85402100     -0.09989800      0.02099600
C          -2.13277900      0.14799400      0.39418600
C          -3.17475400     -0.90087700      0.38957800
C          -2.98125700     -2.19775400      0.66618500
H          -1.90169200      2.13436600      0.80564700
H          -3.19182700      1.42596400      1.57843000
H           1.20569600      0.37597600      0.43036800
H           0.53675500      1.28606600     -0.93233600
H           0.09679700      1.72623500      0.73365400
H          -0.64041000     -1.09145900     -0.38550100
H          -4.18448100     -0.54360700      0.15193300
H          -1.99701900     -2.58144700      0.94861000
H          -3.80375900     -2.91548800      0.61575700
