16
b3lypvdz=-333.663077620194 
F           0.96507900      2.51342200     -1.42278100
C           0.26992300      0.68299700     -0.04296900
C          -0.77616000     -0.40142200      0.13332500
C          -2.15414100      0.08781700      0.37583700
C           0.14532500      1.38549000     -1.39469000
C          -0.44593300     -1.70354300      0.06353500
C          -3.27332500     -0.63430000      0.53115300
H           0.15126800      1.45182400      0.74055900
H           1.28197600      0.26163900      0.05750100
H          -2.24369300      1.17884100      0.44550000
H           0.45048100      0.71620600     -2.21751400
H          -0.89002500      1.72081300     -1.58022700
H          -1.18763300     -2.49715500      0.18082500
H           0.58570600     -2.01773600     -0.11043300
H          -3.28361200     -1.72707600      0.48153000
H          -4.22933600     -0.14171800      0.72104900
