14
b3lypvdz=-270.342770640688 
O          -0.18364100      1.90827500      0.86328500
C           3.88491600     -0.58845400      1.19405900
C           0.20925500      0.87025000     -0.03741100
C           2.57788000     -0.09262000      0.77153100
C           1.49686000      0.33744000      0.42823800
C           0.31101400      1.37944500     -1.48431600
H          -1.02465600      2.25996600      0.53399900
H           4.61465500     -0.54817900      0.36799500
H           3.83039100     -1.63185300      1.54726400
H           4.28582700      0.01911200      2.02122200
H          -0.53229100      0.04407200     -0.00217700
H           0.60939300      0.56392700     -2.16224300
H          -0.66401900      1.76881500     -1.82437400
H           1.05751600      2.18550500     -1.54877200
