12
b3lypvdz=-232.108838522827 
C          -0.89242500     -0.24713800      0.14258700
C          -2.18426800      0.15970400      0.49328300
C          -0.61917100     -1.60201000     -0.07180300
C          -3.20307100     -0.78881000      0.62945000
C          -1.63798900     -2.55049300      0.06431300
C          -2.92987400     -2.14365800      0.41492800
H          -0.09641600      0.49396800      0.03376700
H          -2.39743200      1.21818600      0.66578100
H           0.38822900     -1.92047900     -0.35210000
H          -4.21040900     -0.47033600      0.90997300
H          -1.42483500     -3.60899100     -0.10812500
H          -3.72594000     -2.88474300      0.52344700
