14
b3lypvdz=-410.866136129136 
F           0.29110300      0.57047900     -2.38132700
F          -0.73648800      2.29801400     -1.46270400
N          -2.67597600      1.36347900      0.57346400
C           0.27260600      0.72317900      0.00215600
C          -0.86883900     -0.24945100      0.16671400
C          -2.13505100      0.08736900      0.48713100
C           0.34318700      1.44519700     -1.33369400
H          -2.03020100      2.13993500      0.46689100
H          -3.37905000      1.51163900      1.28925300
H           0.22908200      1.51857500      0.77231100
H           1.23160500      0.19735500      0.14978400
H          -0.64953800     -1.30865000      0.01751800
H          -2.87071200     -0.70899200      0.64796400
H           1.25937200      2.05547200     -1.44566100
