12
b3lypvdz=-256.313479573804 
F           1.56975000      2.06504100     -1.54576900
C           0.07377400      0.94639500     -0.05015700
C          -1.00059200     -0.10138900      0.04985900
C          -2.18119000      0.04737100      0.65802400
C           0.42575000      1.26924700     -1.49957300
H          -0.22768100      1.86626900      0.47788600
H           0.99720100      0.57744500      0.43374700
H          -0.76524900     -1.06561900     -0.42102100
H          -2.46357000      0.98730300      1.14393600
H          -2.90950900     -0.76726800      0.69943200
H           0.63646600      0.34596800     -2.06881700
H          -0.39305000      1.81353700     -2.00204500
