9
b3lypvdz=-452.600500854808 
F           0.61662800      0.23675700     -2.22879400
F          -0.79136500      1.88010000     -1.94095800
F           1.33361100      2.20396600     -1.62237500
O          -0.16770200      2.00212100      0.80965700
C           0.16733600      0.90422600     -0.00137100
C           0.34307200      1.30791100     -1.45559300
H          -0.97344600      2.39808800      0.44201800
H          -0.57887400      0.08511000      0.03430400
H           1.12943900      0.50802100      0.35741300
