11
b3lypvdz=-429.463743706411 
F           0.53777600      0.26198100     -2.29132100
F           1.28876200      2.24748500     -1.69732200
O          -0.14175100      1.98269300      0.81722400
C           0.24350500      0.89749900     -0.01193600
C           2.59010300     -0.05951200      0.84194700
C           1.53086600      0.37904200      0.45656500
C           0.29969700      1.34000900     -1.48729100
H          -1.05787100      2.21327600      0.60073900
H          -0.49325300      0.06888400      0.02782800
H           3.53313700     -0.43819600      1.18415800
H          -0.65757100      1.79583700     -1.79989100
