11
b3lypvdz=-330.247027467633 
F           0.59209100      0.27303600     -2.32632600
O          -0.12781500      1.98998100      0.79546700
C           0.23774800      0.87463400     -0.01780500
C           2.59224700     -0.07066200      0.83456200
C           1.52745800      0.35782400      0.44727400
C           0.29282500      1.33400500     -1.48320700
H          -1.08303400      2.11864900      0.69878000
H          -0.50782300      0.05879000      0.06908800
H           3.53654900     -0.44486200      1.17927600
H          -0.69059400      1.74686400     -1.77339600
H           1.05924700      2.11844000     -1.59561400
