15
b3lypvdz=-271.273678023803 
C           0.23590400      0.89537400      0.00302000
C           2.61595700     -0.02987300      0.81424900
C          -0.86028700     -0.14699700     -0.00408600
C           1.53141700      0.37678700      0.45733500
C          -2.08255300      0.05605500      0.51543500
C          -3.19424400     -0.90160600      0.52994900
C          -3.09249800     -2.23932700      0.54294000
H          -0.06163800      1.75401400      0.62779600
H           0.37022100      1.29025000     -1.02348200
H           3.57425300     -0.39234500      1.12980900
H          -0.62060800     -1.09637100     -0.49462900
H          -2.29884900      1.03725300      0.95762100
H          -4.19480300     -0.45233600      0.55593300
H          -2.12244700     -2.74445900      0.57152600
H          -3.98272600     -2.87281700      0.54078500
