17
b3lypvdz=-272.503322845249 
C           3.79719000     -0.58697400      1.27466900
C           0.18159600      0.89224400     -0.12678600
C           2.51123800     -0.08603600      0.79162400
C          -0.92957100     -0.13551000     -0.00985900
C           1.45313100      0.34798800      0.38329800
C          -2.04176500      0.01898200      0.71341800
C           0.34602400      1.36820100     -1.58987000
H           4.56818200     -0.52751900      0.48796200
H           3.72683000     -1.63978100      1.59620900
H           4.15534500     -0.00150200      2.13682000
H          -0.09356300      1.76450200      0.49345100
H          -0.77319400     -1.05866400     -0.58161900
H          -2.22573500      0.92674600      1.29786600
H          -2.81340100     -0.75502300      0.74921900
H           0.62501200      0.52507500     -2.24231000
H          -0.59582300      1.80187000     -1.96185000
H           1.13960200      2.12810000     -1.66334100
