13
b3lypvdz=-654.731194986344 
Cl         -1.09858200     -4.28129100     -0.26020700
C           0.16403800      0.76755600      0.00414400
C          -1.00746200     -0.17040600      0.18392400
C          -2.22386400      0.29183500      0.52557000
C          -0.69810300     -1.59859900     -0.04809100
C          -1.56008400     -2.62016700      0.03735500
H          -0.12224500      1.81148100      0.19843100
H           0.99041600      0.50310700      0.68691900
H           0.56687600      0.70502400     -1.02278700
H          -2.39482500      1.35861700      0.68616000
H          -3.08532100     -0.36517400      0.66529100
H           0.33608500     -1.83071600     -0.32276100
H          -2.61342900     -2.52336800      0.30305300
