9
b3lypvdz=-117.824376442215 
C           0.19280800      0.82193400      0.00732000
C          -0.92542300     -0.16944300      0.15811500
C          -2.18347500      0.13624600      0.49003300
H          -0.14630400      1.85012200      0.21459400
H           1.02432900      0.58543400      0.69540600
H           0.60881300      0.79452900     -1.01669300
H          -0.66704500     -1.22098700     -0.02804800
H          -2.48991600      1.17005700      0.68533000
H          -2.95018800     -0.63809300      0.58544200
