10
b3lypvdz=-255.066556118848 
F           1.17508100      2.38255400     -1.61041800
C           0.24581200      0.84606700     -0.02764900
C           2.59128500     -0.11254700      0.83171700
C           1.52684600      0.32129400      0.44700900
C           0.28922500      1.31965000     -1.48111600
H          -0.07354100      1.68739300      0.61197600
H          -0.53169100      0.06538000      0.06415400
H           3.53699900     -0.48911000      1.16863500
H           0.62284000      0.50679900     -2.14912500
H          -0.71145500      1.66232100     -1.79958300
