16
b3lypvdz=-333.665138684052 
F           1.08468500      0.13303500     -2.07409500
C           0.07159300      0.81789100      0.00678100
C          -1.10965500     -0.13373200      0.08836700
C          -2.30344800      0.28159900      0.55001900
C           0.49069100      1.21285000     -1.40729500
C          -0.87961000     -1.51967500     -0.37049700
C          -1.46282600     -2.60918800      0.14871500
H          -0.18024000      1.74954300      0.54216900
H           0.95191200      0.38358800      0.51186000
H          -2.44972200      1.29892100      0.92134000
H          -3.16920900     -0.38391300      0.56374800
H          -0.37131500      1.54712300     -2.00860700
H           1.24634600      2.01626800     -1.37815900
H          -0.14796400     -1.62881900     -1.17769900
H          -1.25213300     -3.60298700     -0.25401200
H          -2.15240600     -2.54720400      0.99536600
