13
b3lypvdz=-393.584994515763 
F          -0.96404900      1.76420000     -1.85204000
F           1.06267100      2.52840200     -1.45420500
C           3.90363300     -0.61449800      1.22142000
C           0.22994300      0.78483200     -0.06961100
C           2.60094700     -0.12693800      0.77273100
C           1.52389600      0.28636200      0.39517200
C           0.29789500      1.39490000     -1.46468400
H           4.59757500     -0.71979400      0.37099300
H           3.81847500     -1.59900200      1.71188900
H           4.36272500      0.07784200      1.94620400
H          -0.16101300      1.56613500      0.60564300
H          -0.51632800     -0.02835000     -0.09166300
H           0.70963000      0.70650900     -2.22304900
