5
b3lypvdz=-238.891931151396 
F          -0.85392300      1.81364700     -1.92778500
F           1.27746700      2.28261700     -1.56811700
C           0.32576100      1.31356100     -1.46750800
H           0.61880600      0.45216200     -2.09386700
H           0.20999000      1.03141300     -0.40542300
