14
b3lypvdz=-332.41087552496 
F          -0.71343100      1.89878100     -2.15475500
C           0.13658100      0.91234100     -0.13624000
C           2.39577900     -0.05191800      0.94459900
C          -0.97334400     -0.11690300     -0.01581800
C           1.37709800      0.39104800      0.45873300
C          -2.06294500      0.02948200      0.73974200
C           0.41496700      1.31019100     -1.59842900
H          -0.16138100      1.82603600      0.40820200
H           3.29776100     -0.44495400      1.37135400
H          -0.81323500     -1.04227600     -0.58243400
H          -2.23920100      0.93902600      1.32326400
H          -2.82125600     -0.75528700      0.80652700
H           0.67978900      0.42089500     -2.19678800
H           1.24631900      2.03353800     -1.64555700
