10
b3lypvdz=-255.06653802203 
F           0.56543300      0.30820900     -2.37193900
C           0.24750200      0.81357300     -0.04299100
C           2.60398500     -0.08583400      0.85067700
C           1.53646100      0.32075700      0.44514800
C           0.28639900      1.33652500     -1.48010700
H          -0.10341100      1.63460100      0.60882800
H          -0.50735200      0.01036400      0.02868800
H           3.54900300     -0.44865500      1.20457300
H          -0.69280300      1.77058100     -1.74898700
H           1.06478200      2.11027800     -1.59489100
