10
b3lypvdz=-155.885131312017 
C          -0.49841000     -1.67867400     -0.13809100
C          -3.34977600     -0.78461900      0.69093000
C          -1.57482800     -2.45941900      0.04880900
C          -2.92785300     -2.03541500      0.44245000
H          -0.52746900     -0.59300900     -0.00340800
H           0.45869400     -2.11330900     -0.43534700
H          -2.68873200      0.08443600      0.62235100
H          -4.38541400     -0.59342900      0.98158700
H          -1.45596100     -3.53795800     -0.10840200
H          -3.65705300     -2.84840300      0.53812200
