5
b3lypvdz=-338.121033502429 
F           0.68269300      0.29676500     -2.27415600
F          -0.83797100      1.81771300     -1.92171100
F           1.26061200      2.27679700     -1.56782400
C           0.32555700      1.31706200     -1.47659200
H           0.22690900      0.97466300     -0.43361700
