11
b3lypvdz=-231.05164637844 
O          -0.19600300      1.93458200      0.88185100
C           3.87768400     -0.57869200      1.17180100
C           0.17825400      0.87110900      0.01499300
C           2.56953600     -0.08420700      0.75086000
C           1.48584100      0.34824900      0.41764400
H          -1.01505000      2.30996100      0.52565500
H           4.61840700     -0.51184800      0.35743100
H           3.82941500     -1.63019300      1.50174000
H           4.26127700      0.01363800      2.01842100
H          -0.56054300      0.04208000      0.04372600
H           0.23698200      1.20662000     -1.04252000
