14
b3lypvdz=-729.914032136732 
Cl         -1.14854800     -4.14011700      0.04358200
O          -0.16040900      1.96555900      0.65136400
C           0.22576600      0.84568600     -0.14708300
C          -0.84844900     -0.20752200     -0.17872800
C          -0.68099700     -1.46756200      0.25185300
C          -1.73628000     -2.48554000      0.29908100
C          -3.04020800     -2.28344000      0.52833000
H          -0.82664500      2.46235700      0.15446100
H           1.14290300      0.44120000      0.30743100
H           0.47916300      1.16870100     -1.17805400
H          -1.82124600      0.10534700     -0.57838100
H           0.30664200     -1.79344300      0.59670100
H          -3.40109300     -1.27549600      0.74433200
H          -3.75929900     -3.10283000      0.52801300
