8
b3lypvdz=-79.764226473684 
C           0.18647000      0.83402200     -0.00364300
C           0.32733000      1.31177800     -1.45485700
H          -0.10737700      1.66176200      0.66355000
H          -0.57977600      0.04577600      0.08835400
H           1.13555700      0.41887900      0.37674800
H           0.62117700      0.48403800     -2.12205000
H          -0.62175700      1.72692100     -1.83524800
H           1.09357500      2.10002400     -1.54685500
