11
b3lypvdz=-367.440726790001 
F           0.62952800      0.11129300     -2.18761100
O          -0.11408600      2.14606400      0.71009900
O          -1.73331400      3.44988800      1.53641600
C           0.14951100      0.94903700     -0.03001700
C           0.35675300      1.28793400     -1.50006600
C          -1.41165200      2.44553500      0.97249100
H          -0.67318500      0.22092600      0.08290700
H           1.06203900      0.50830500      0.39638900
H          -0.55040600      1.74661200     -1.93113300
H           1.20182300      1.98530200     -1.62694600
H          -2.11591100      1.65420500      0.61767100
