15
b3lypvdz=-271.271563902261 
C           0.19389100      0.73890700     -0.15964100
C           2.49113700      0.00076600      1.00603300
C          -0.97094900     -0.19855800      0.14676800
C           1.45301300      0.33763700      0.47823600
C          -2.10245100      0.29184100      0.67906400
C          -0.75979100     -1.61863800     -0.20856000
C          -1.59827000     -2.64146000      0.01084900
H          -0.06482200      1.76453100      0.14747300
H           0.35301900      0.76897200     -1.25473800
H           3.40786800     -0.30220400      1.47201900
H          -2.19947000      1.35086200      0.92739900
H          -2.96679200     -0.34355000      0.88248000
H           0.19654800     -1.83293100     -0.69711100
H          -1.33714200     -3.65293100     -0.30840400
H          -2.56148700     -2.51214500      0.51183300
