11
b3lypvdz=-173.15341228644 
C           0.29471100      0.79038900      0.02778300
C          -0.82958300     -0.15846900      0.34305700
N          -2.68484500      1.45530800      0.50922500
C          -2.11129300      0.17846400      0.58038400
H           1.12599100      0.69700800      0.75081700
H           0.72705500      0.58649600     -0.96988500
H          -0.02587200      1.84591100      0.02811600
H          -0.58256500     -1.22435300      0.36009400
H          -2.02464200      2.22450000      0.58807000
H          -3.46423600      1.59459000      1.14645800
H          -2.83972100     -0.61174500      0.79038100
