10
b3lypvdz=-354.288133177869 
F           0.58812800      0.28768000     -2.33206500
F          -0.91644000      1.82011900     -1.83245200
C           0.24499000      0.83332000     -0.04002800
C           2.59277800     -0.08188000      0.85352400
C           1.52934900      0.33312200      0.44649000
C           0.30919600      1.31985200     -1.48354300
H          -0.09943400      1.67292300      0.58803000
H          -0.52283300      0.04215500      0.02591700
H           3.53270800     -0.45458300      1.21184600
H           1.06805800      2.10599100     -1.64231900
