11
b3lypvdz=-466.661686108513 
F           0.61836300      0.15077300     -2.16954400
F          -0.80015600      1.83807400     -1.97903100
O          -0.10630500      2.10029500      0.76253900
O          -1.72557300      3.44907500      1.51274100
C           0.15755800      0.93549700     -0.01057700
C           0.35314000      1.29726600     -1.47483500
C          -1.41363500      2.44376600      0.94764100
H          -0.65704200      0.19359200      0.06670800
H           1.08080300      0.48687700      0.38292500
H           1.16865300      2.01944400     -1.64460800
H          -2.12220600      1.68734100      0.53834100
