12
b3lypvdz=-355.534429066515 
F           0.64174200      0.53714600     -2.41832300
F          -0.93023100      1.94343100     -1.75559400
C           0.22949000      0.72047000     -0.08764800
C          -0.85913000     -0.31428100     -0.03078200
C           0.30076100      1.42473700     -1.43317300
C          -0.64480100     -1.62380700      0.10853300
H           0.06087000      1.50404000      0.67278900
H           1.21536300      0.26934900      0.10999600
H          -1.88195700      0.06466400     -0.12949100
H           1.02846200      2.25432900     -1.46002100
H          -1.47078500     -2.33830200      0.14106400
H           0.36761700     -2.03137600      0.19444800
