16
b3lypvdz=-234.458709982875 
C           0.25914500      0.69900000     -0.04523100
C          -0.78024700     -0.39147900      0.13583100
C          -2.17052200      0.08104000      0.34934900
C           0.15798600      1.41157300     -1.40512500
C          -0.43700800     -1.69124500      0.08810900
C          -3.27258500     -0.65685700      0.54627200
H           0.13771600      1.44832700      0.75927800
H           1.26448100      0.26381500      0.07337900
H          -2.28441800      1.17232300      0.35573600
H           0.34073900      0.70387300     -2.23037500
H          -0.84226800      1.84944100     -1.56008100
H           0.89234000      2.22940000     -1.48428800
H          -1.17213200     -2.49243200      0.19503300
H           0.60181700     -1.99460000     -0.06290700
H          -3.25307600     -1.75078700      0.56275300
H          -4.24216900     -0.17999200      0.70566700
