10
b3lypvdz=-354.285872124283 
F           0.61940800      0.32007900     -2.33069000
F           1.21704200      2.31388100     -1.60347300
C           0.24410500      0.82401600     -0.03296200
C           2.60048900     -0.09492400      0.84008900
C           1.53487300      0.32149500      0.44185000
C           0.28096400      1.32784100     -1.47257500
H          -0.08961300      1.65733000      0.60945800
H          -0.51887600      0.02953200      0.03968600
H           3.54771300     -0.46078600      1.18577300
H          -0.69650600      1.73503700     -1.79065600
