11
b3lypvdz=-429.46813746177 
F          -0.88241000      1.81572000     -1.85888400
F           1.26683600      2.28805600     -1.71328700
O          -0.10200000      2.07148900      0.77137900
C           0.25783700      0.94478200     -0.00473700
C           2.57658100     -0.09566500      0.82480100
C           1.53097400      0.39894100      0.46894300
C           0.34867800      1.31202800     -1.49377900
H          -0.86963000      2.47291400      0.33184000
H          -0.51084100      0.14525500      0.06525800
H           3.50850700     -0.52120100      1.14159900
H           0.57736800      0.45008200     -2.14213400
