10
b3lypvdz=-615.441620030911 
Cl         -1.23493600     -4.16418500     -0.20734300
C          -0.76458600     -0.18456400      0.10920500
C          -0.66423600     -1.50903500     -0.06990600
C          -1.75032500     -2.49393600      0.09919600
C          -3.02339400     -2.26362000      0.44401400
H           0.10422500      0.45873500     -0.04579100
H          -1.69478700      0.30413000      0.41280400
H           0.29736500     -1.92952000     -0.37549600
H          -3.36822600     -1.24682800      0.64361700
H          -3.74540000     -3.07427800      0.54270000
