12
b3lypvdz=-355.535930165687 
F           0.74434100      0.13258800     -2.18130300
F           1.55826900      2.06781600     -1.50750400
C           0.05021200      0.95338900     -0.06565600
C          -1.01751300     -0.10159100      0.02773300
C          -2.17626600      0.02880000      0.67954000
C           0.43445100      1.28353700     -1.49878300
H          -0.26067500      1.88262100      0.43904400
H           0.97714600      0.60233100      0.42365000
H          -0.78421400     -1.04374000     -0.48048800
H          -2.44727400      0.95363100      1.19931000
H          -2.89913100     -0.79042300      0.72187900
H          -0.35414500      1.80724200     -2.06602100
