11
b3lypvdz=-193.914423826526 
C           3.88467000     -0.57724800      1.16592700
C           4.93308800     -0.84080200      0.09656800
C           4.27197000     -2.00088800      0.79467700
C           2.58741300     -0.07037900      0.78501500
C           1.49545100      0.35556300      0.46612100
H           4.25753200     -0.20621900      2.12561900
H           5.97094200     -0.60572300      0.34890900
H           4.65777900     -0.63181900     -0.94014200
H           3.54098400     -2.59330800      0.23907300
H           4.85520700     -2.56809800      1.52532800
H           0.53176400      0.73052200      0.18270600
