9
b3lypvdz=-254.154056101556 
C           0.22745400      0.93924700     -0.00985400
F           1.09882300      2.32153800     -1.71536600
O          -0.29488500      2.02662600      0.73359800
C           0.23523800      1.23765000     -1.49286200
H          -0.42483200      0.07319000      0.19055300
H           1.25556200      0.67127100      0.31224300
H           0.21843500      2.80535300      0.46533000
H           0.59760700      0.38095100     -2.08798800
H          -0.77260200      1.53227500     -1.83495400
