9
b3lypvdz=-353.374105749297 
F           0.65021300      0.23877600     -2.23336800
F          -0.81267400      1.86969000     -1.91718700
O          -0.17171100      1.97855800      0.81704300
C           0.15256200      0.88000000     -0.00632400
C           0.35934000      1.31668900     -1.44604500
H          -0.99508300      2.35772000      0.47040600
H          -0.61764700      0.08255500      0.00361600
H           1.09142700      0.44992100      0.37580300
H           1.15197400      2.07379000     -1.56834400
