12
b3lypvdz=-256.312714148133 
F          -0.56072300      1.90404100     -2.18160500
C           0.04927100      0.93946200     -0.06973300
C          -1.03389800     -0.10006500      0.02937600
C          -2.18129500      0.03670600      0.69959800
C           0.47071900      1.26381100     -1.49875500
H          -0.25887100      1.86899700      0.43803800
H           0.95525000      0.57204600      0.45227500
H          -0.82569300     -1.04836400     -0.48479900
H          -2.43232800      0.96480300      1.22377800
H          -2.91718200     -0.77055900      0.74876500
H           0.72875200      0.34471300     -2.05601500
H           1.34549800      1.93700900     -1.50812300
