12
b3lypvdz=-269.104153493766 
O          -0.11608000      2.14664200      0.52563000
C           0.19215900      0.91425500     -0.11240900
C           2.41568200     -0.11994500      0.97631200
C          -0.93269800     -0.11211100     -0.03408700
C           1.41990100      0.36482900      0.48525700
C          -2.03776300      0.05878400      0.69302300
H          -0.78950800      2.57918200     -0.02168800
H           0.41359700      1.08332500     -1.18949100
H           3.29760900     -0.54463600      1.41424300
H          -0.76375000     -1.02305400     -0.61865500
H          -2.18172500      0.96304000      1.28934300
H          -2.82432300     -0.69991200      0.72242100
