12
b3lypvdz=-355.534127522506 
F           0.67325400      0.05724900     -2.15804200
F          -0.64544200      1.82826900     -2.12947900
C           0.08423300      0.95578000     -0.03768700
C          -0.94772300     -0.12332900      0.13996500
C          -2.18403500      0.08107200      0.60034200
C           0.41596900      1.23369700     -1.49729300
H          -0.24999600      1.90422100      0.41242600
H           1.02815100      0.66792200      0.45896900
H          -0.63476700     -1.13149400     -0.14989800
H          -2.53124300      1.07692400      0.89236800
H          -2.89586900     -0.74101900      0.70619800
H           1.29356700      1.88800700     -1.63176900
