13
b3lypvdz=-294.362648989753 
F           0.55066200      0.40128000     -2.42017100
C           3.91468900     -0.58932300      1.23263100
C           0.23132900      0.77951000     -0.06757700
C           2.60823700     -0.10917200      0.78700000
C           1.52780700      0.28908100      0.40331500
C           0.26524800      1.37925700     -1.47269500
H           4.66874200     -0.48239600      0.43473100
H           3.87788400     -1.65445300      1.51706100
H           4.27449400     -0.02413900      2.10765100
H          -0.14488200      1.56551800      0.61428900
H          -0.51825800     -0.03172700     -0.04321100
H          -0.71697200      1.81909300     -1.72003300
H           1.03962200      2.16227100     -1.54629200
