16
b3lypvdz=-333.664939238861 
F          -0.43841800      2.05023000     -2.16967400
C           0.08624500      0.96255800     -0.09373000
C          -1.01000800     -0.06810400     -0.08397500
C          -2.15644000      0.03613900      0.61034200
C           0.56122300      1.36636900     -1.48558300
C          -3.21977100     -0.97387600      0.69900800
C          -3.07999800     -2.30062800      0.55074700
H          -0.23102100      1.86488700      0.45724300
H           0.96639000      0.55780700      0.44570000
H          -0.82534600     -0.96913700     -0.68467500
H          -2.34791100      0.96810400      1.15783700
H           0.83887800      0.47935200     -2.08428400
H           1.44015100      2.03180300     -1.42011400
H          -4.21627400     -0.58179400      0.93738600
H          -2.10637800     -2.76475800      0.36525000
H          -3.94202000     -2.96895400      0.61872100
