16
b3lypvdz=-333.666099217407 
F           1.14426100      0.11006500     -2.01532200
C           0.08344700      1.02746000     -0.06932700
C          -0.93588700     -0.06769500      0.05650100
C          -2.12610600      0.05735100      0.67122500
C           0.54131100      1.26588800     -1.50684600
C          -3.15794100     -0.97884900      0.82852000
C          -3.16324600     -2.21671700      0.30713000
H          -0.31235100      1.97452100      0.33834500
H           0.98197400      0.77023400      0.52384500
H          -0.64938000     -1.02490700     -0.39297400
H          -2.37501000      1.02847400      1.11779300
H          -0.30899100      1.51399300     -2.16486300
H           1.28569000      2.08018600     -1.55520800
H          -4.01711900     -0.67682000      1.43862300
H          -2.34917800     -2.59265400     -0.31926500
H          -3.99247400     -2.90172900      0.49812200
