14
b3lypvdz=-369.549454507096 
F           0.64126800      2.14131400     -1.65878100
O          -0.40963700      1.64636500      0.88484400
C           4.12221700     -0.05302900      0.97882500
C           0.12890800      0.60799800      0.07486900
C           2.71344300      0.15429400      0.65538600
C           1.54445300      0.33916100      0.38537200
C          -0.05793000      0.95834700     -1.40127100
H           0.08301100      2.44850700      0.64410100
H           4.76075000      0.09549700      0.09212600
H           4.30197300     -1.07159400      1.36172000
H           4.45662600      0.65662600      1.75284200
H          -0.47828200     -0.28698400      0.29705500
H           0.33139200      0.17073100     -2.06720400
H          -1.12509300      1.14706800     -1.60658400
