13
b3lypvdz=-331.502263238674 
F           0.91014900      0.10310000     -2.13405800
O          -0.23581100      2.15435400      0.63410400
C           0.05753300      0.95017100     -0.05740500
C          -1.06359300     -0.06054200     -0.02978300
C          -2.16553600      0.04536000      0.71817900
C           0.49253800      1.26899800     -1.49467500
H          -1.07565000      2.48987400      0.28016900
H           0.93404100      0.52323100      0.46296000
H          -0.91919600     -0.91880600     -0.69543800
H          -2.31174000      0.88972200      1.39857600
H          -2.94878900     -0.71612700      0.68621900
H          -0.34901600      1.70054000     -2.06852300
H           1.32887100      1.98792400     -1.48852600
