14
b3lypvdz=-270.359912655509 
O          -0.10038100      2.11988500      0.51011700
C           0.16431300      0.76052500      0.22727900
C          -1.05630800     -0.14288900      0.18569400
C          -2.26534200      0.30009100      0.56855800
C          -0.80291500     -1.51134500     -0.31054500
C          -1.46388500     -2.62008300      0.05299800
H          -0.68102000      2.44821100     -0.19359500
H           0.84973600      0.41162700      1.02075300
H           0.72178900      0.64062900     -0.72812000
H          -2.38323600      1.30537500      0.97732200
H          -3.15489500     -0.32902200      0.48929000
H           0.02842300     -1.61253100     -1.02154100
H          -1.21253800     -3.59097500     -0.38096600
H          -2.26674200     -2.59609700      0.79635700
