5
b3lypvdz=-139.67502611244 
F           0.69275700      0.26908500     -2.30007500
C           0.32922700      1.31405400     -1.46861400
H          -0.63894900      1.72955900     -1.79858500
H           1.09800100      2.10537300     -1.51112700
H           0.23646300      0.94692900     -0.43080000
