14
b3lypvdz=-270.355901166871 
O           0.05096200      1.89349500      0.75888500
C           0.06090300      0.81556700     -0.17365100
C          -0.84760600     -0.33671900      0.23345100
C          -2.21424600      0.03108700      0.65305600
C          -0.40326000     -1.60434200      0.20767400
C          -3.33605300     -0.65868000      0.40280300
H          -0.58861200      2.55084200      0.45575400
H           1.09987800      0.45465800     -0.24479600
H          -0.23408200      1.17005000     -1.18246400
H          -2.28045800      0.97368100      1.20926700
H          -1.04463700     -2.43944100      0.49967100
H           0.61802000     -1.84002500     -0.10550100
H          -3.32388300     -1.58617900     -0.17816000
H          -4.30372800     -0.31089400      0.77381300
