17
b3lypvdz=-309.648431954672 
O           0.18160900      1.82717300      0.87978700
C           0.24658700      0.83197200     -0.14907900
C          -0.86005700     -0.18123700     -0.00222100
C           0.24125000      1.47964300     -1.53786600
C          -0.67272400     -1.50388300      0.14593100
C          -1.70170500     -2.54422900      0.28085300
C          -3.03170800     -2.37569300      0.35110900
H          -0.62408800      2.34601900      0.73113600
H           1.21324000      0.32741700      0.01228300
H          -1.87891200      0.22864800     -0.04311600
H           0.42103600      0.73063500     -2.32584900
H          -0.73502600      1.95480400     -1.74436300
H           1.01923500      2.25715600     -1.59845400
H           0.36144400     -1.86927600      0.16921600
H          -1.31253500     -3.56739300      0.33587700
H          -3.49981000     -1.38791100      0.31527200
H          -3.70173600     -3.23184500      0.45578400
