12
b3lypvdz=-360.393112589403 
O          -0.16729900      1.85351100      1.13944500
O          -1.58900300      3.52650700      1.53634900
N          -2.35748400      1.73296800      0.33527700
C           0.10020600      0.63977000      0.42316200
C           2.70566600      0.07011400      0.53799700
C           1.52767400      0.34374800      0.49768900
C          -1.40498400      2.43749800      1.05228900
H          -2.33994400      0.71861500      0.35723900
H          -3.28558400      2.12702400      0.45511900
H          -0.46479000     -0.20660000      0.86116900
H          -0.20875200      0.74051500     -0.63235000
H           3.75059500     -0.16867000      0.57651500
