15
b3lypvdz=-308.397705554994 
O          -0.22064400      1.80610500      0.98752600
C           3.94824700     -0.55732400      1.08635200
C           0.18668700      0.81278800      0.02688400
C           2.61428000     -0.08883800      0.71551800
C          -0.87460400     -0.26721700     -0.09745600
C           1.50864300      0.31721000      0.42306800
C          -0.72866300     -1.56766700      0.15730800
H          -1.02117100      2.22183600      0.63275900
H           4.72508500     -0.06032900      0.48344100
H           4.04872900     -1.64531000      0.93557200
H           4.15929100     -0.34145200      2.14708200
H           0.29482200      1.29542700     -0.96835700
H          -1.85004100      0.11168400     -0.43156500
H          -1.56714200     -2.26101700      0.05084100
H           0.23208000     -1.97739600      0.48052700
