14
b3lypvdz=-311.647962672429 
F          -0.72866500      2.26948200     -1.58444000
N          -2.60005200      1.51653500      0.53915500
C           0.28732500      0.74132100     -0.02055300
C          -0.86498400     -0.18932600      0.27439500
C          -2.13433900      0.20475100      0.50441900
C           0.31454100      1.33188600     -1.42439800
H          -2.08994900      2.14540900     -0.07729300
H          -3.60182400      1.60202700      0.39568900
H           0.30228500      1.58947700      0.69112400
H           1.23936500      0.20060100      0.12439500
H          -0.65174400     -1.25900700      0.33847100
H          -2.88773400     -0.55011200      0.75310500
H           0.17031300      0.55681100     -2.19572900
H           1.25446500      1.87814500     -1.61674000
