16
b3lypvdz=-694.017006135147 
Cl         -1.10079500     -4.10717400     -0.61528400
C           0.03948800      0.93385500     -0.03110000
C          -1.01406000     -0.09692500      0.32704900
C          -2.18282300      0.25093800      0.89714000
C           0.36911200      1.00617800     -1.52939800
C          -0.66354700     -1.50409600      0.04801500
C          -1.54268100     -2.43408700     -0.34505200
H          -0.29081000      1.92154200      0.32902200
H           0.96156500      0.69202800      0.53182100
H          -2.43418100      1.29956900      1.07656600
H          -2.90839200     -0.49728400      1.22351400
H           0.71795900      0.03598600     -1.91989600
H          -0.51541000      1.30379500     -2.11620900
H           1.16314700      1.74694400     -1.71883800
H           0.39003500     -1.79048800      0.14771000
H          -2.59780900     -2.23668300     -0.54006000
