12
b3lypvdz=-256.313447172886 
F           1.11525400      2.53347800     -1.41318000
C           0.27316300      0.71078800     -0.10174900
C          -0.82971800     -0.30737600     -0.01227400
C           0.27454700      1.42261400     -1.45272000
C          -0.66280100     -1.62680700      0.10855100
H           0.13274500      1.48504600      0.67409500
H           1.25412200      0.23933600      0.07473400
H          -1.85089300      0.09489000     -0.06227400
H           0.62749000      0.75092800     -2.25447600
H          -0.73848700      1.77969600     -1.71247200
H          -1.51677700     -2.30668300      0.16861900
H           0.33425400     -2.07701100      0.16354600
