13
b3lypvdz=-654.733130486187 
Cl         -1.15758000     -4.16076700     -0.03746900
C           0.26110500      0.84050600     -0.05922400
C          -0.84698000     -0.15615100      0.08810800
C          -0.68439200     -1.48721300      0.01838600
C          -1.74715600     -2.49709600      0.16495200
C          -3.04709500     -2.30309500      0.42204400
H           0.36058900      1.46119800      0.85057100
H           1.22751300      0.34766400     -0.24994800
H           0.05654400      1.54228300     -0.88847200
H          -1.84480600      0.26070400      0.27393600
H           0.31710500     -1.88518200     -0.17083200
H          -3.43938900     -1.29331000      0.56094000
H          -3.74505800     -3.13564100      0.50830800
