13
b3lypvdz=-422.787113919009 
F           0.56049100      0.17537500     -2.18785600
O          -0.09397300      2.01189000      0.87265900
O          -1.61418200      3.53280600      1.46866100
N          -2.37084300      1.57171500      0.56652900
C           0.24697800      0.89942800      0.04301300
C           0.21797500      1.29100900     -1.43010300
C          -1.39022200      2.43918200      1.01089400
H          -2.20475200      0.57184500      0.60439800
H          -3.29803000      1.85395100      0.86706000
H          -0.40113000      0.02215400      0.21603600
H           1.26437200      0.60854100      0.34089700
H          -0.78848100      1.62617000     -1.72810300
H           0.94129800      2.09853500     -1.62878400
