14
b3lypvdz=-233.207563072925 
C           0.16311200      0.90468200     -0.12017200
C           2.42843600     -0.06837900      0.94269600
C          -0.94824900     -0.12216500      0.00527600
C           1.40755900      0.37587900      0.46245000
C          -2.07049700      0.05150200      0.70734300
C           0.38273000      1.32000700     -1.59429400
H          -0.12962000      1.79986000      0.45754500
H           3.33166100     -0.46146200      1.36566500
H          -0.77496500     -1.06202900     -0.53286700
H          -2.26477300      0.97616200      1.26078800
H          -2.83937600     -0.72415300      0.75782600
H           0.68384600      0.45032100     -2.20023100
H          -0.54693200      1.73509600     -2.01380400
H           1.17786800      2.07758000     -1.67102200
