5
b3lypvdz=-189.675852418057 
C          -1.40183800      2.45227800      0.93506600
O          -0.13165600      2.01228200      0.78771300
O          -1.65937500      3.57240800      1.27081700
H          -2.16887300      1.67145900      0.71063100
H          -0.14565900      1.08677300      0.49347300
