11
b3lypvdz=-193.922455468676 
C           0.17097900      0.79062900      0.11879800
C           2.65992000     -0.04365000      0.63795400
C          -0.87955700     -0.28910900     -0.03118900
C           1.52973200      0.32575200      0.40255300
C          -0.67437000     -1.60446800      0.05066700
H          -0.14486900      1.49288600      0.91334500
H           0.18677100      1.40024100     -0.80544000
H           3.65709900     -0.37293700      0.85412700
H          -1.88449200      0.09864100     -0.23549400
H          -1.49780200     -2.31147500     -0.07593800
H           0.31968700     -2.01371100      0.24891800
