16
b3lypvdz=-694.018127224264 
Cl         -1.15647200     -4.21849200      0.36129400
C           0.34069000      0.73574400     -0.13392800
C          -0.79617700     -0.22996700      0.02865500
C           0.26526800      1.52136200     -1.45458900
C          -0.65322100     -1.56311300      0.11656200
C          -1.74312300     -2.54013100      0.26197300
C          -3.06327700     -2.32536900      0.32505500
H           0.32652100      1.45845000      0.70400100
H           1.29712300      0.19060100     -0.06997900
H          -1.80154000      0.20873700      0.05673800
H           0.32675500      0.84308000     -2.32100100
H          -0.68309000      2.07952000     -1.53329800
H           1.08691000      2.25191400     -1.52808400
H           0.35131000     -1.99360600      0.08005000
H          -3.44877400     -1.30564100      0.26714800
H          -3.77480200     -3.14229000      0.43430400
