7
b3lypvdz=-116.57942866013 
C           0.18759100      0.82774300      0.00817400
C           2.58285700     -0.07008600      0.78541900
C           1.49702800      0.33704400      0.43227300
H          -0.12439600      1.69384800      0.61324000
H          -0.58031800      0.04393200      0.11551100
H           0.20715900      1.14395100     -1.04819000
H           3.54277900     -0.43023100      1.09857400
