13
b3lypvdz=-331.498236706718 
F           0.60027700      0.51302900     -2.45782000
O          -0.02104300      1.77434800      0.88426300
C           0.18555200      0.76649300     -0.10682400
C          -0.86686500     -0.30796900     -0.05184100
C           0.25829500      1.43964600     -1.47994600
C          -0.62201400     -1.60541300      0.13679600
H          -0.95066100      2.04726400      0.84528200
H           1.17205200      0.32722600      0.11198000
H          -1.90055100      0.04182900     -0.19307800
H          -0.71927700      1.88584600     -1.74707500
H           1.01686200      2.24062700     -1.45636400
H          -1.42490500     -2.34642400      0.16517600
H           0.40067800     -1.97350100      0.26685000
