15
b3lypvdz=-250.506391059805 
N          -2.28232700      1.33334800      1.30810000
C           0.06991600      0.78122400     -0.37441300
C          -0.82943000     -0.28559000      0.20414800
C          -2.21025000      0.12689200      0.58682900
C          -0.42229100     -1.55372600      0.38244900
C          -3.30081700     -0.55539000      0.17527800
H          -1.61453800      1.38465100      2.07699800
H          -3.21728300      1.53900100      1.65401000
H           0.26648600      1.58563100      0.35382100
H           1.03556600      0.36046100     -0.69239600
H          -0.40871700      1.26559200     -1.24285600
H          -1.08561200     -2.29605800      0.83121900
H           0.57698900     -1.87574200      0.07705100
H          -3.19680200     -1.39772000     -0.50802400
H          -4.30448900     -0.24717600      0.48148600
