18
b3lypvdz=-289.790491212975 
N          -2.62234200      1.38250800      0.88221200
C           0.22513900      0.84082600     -0.08286500
C          -0.92839400     -0.12411000     -0.04262800
C          -2.17040700      0.12045700      0.44214500
C           0.49203700      1.43420200     -1.47903200
C          -3.22772300     -0.91242500      0.46923800
C          -3.04229400     -2.22181400      0.68304600
H          -1.87290900      2.06133600      0.99908700
H          -3.16067600      1.32624900      1.74683100
H           0.07216100      1.66172700      0.64190600
H           1.13885800      0.31746200      0.25718200
H          -0.76531100     -1.10663700     -0.49306800
H           0.73915100      0.63977200     -2.20237100
H          -0.39570900      1.96555500     -1.86079800
H           1.33588400      2.14459200     -1.45945600
H          -4.24507800     -0.53105800      0.31579300
H          -2.04980000     -2.63446700      0.88254000
H          -3.88138800     -2.92157400      0.66503700
