16
b3lypvdz=-333.66344534177 
F          -0.78452200      1.66763300     -2.14135200
C           0.06551200      0.90480000     -0.03920700
C          -1.00479300     -0.11107600      0.30974800
C          -2.18357000      0.26636000      0.83437100
C           0.31964400      1.07335600     -1.53294900
C          -0.66024100     -1.53040500      0.07807500
C          -1.51426500     -2.49714700     -0.28839900
H          -0.19918400      1.88968900      0.37757200
H           1.01786300      0.60160600      0.43675400
H          -2.42718500      1.32146300      0.98335400
H          -2.93310300     -0.46628000      1.14205200
H           0.50204700      0.10228600     -2.02740200
H           1.19430900      1.72653700     -1.70358800
H           0.39749600     -1.79586000      0.21162700
H          -1.17480100     -3.52960300     -0.40931100
H          -2.56890700     -2.28675900     -0.48844500
