11
b3lypvdz=-330.252678832952 
F          -0.92627300      1.78888000     -1.86737200
O          -0.13631600      2.03387800      0.78080900
C           0.23367600      0.91320600     -0.00883000
C           2.57307300     -0.08567300      0.82014300
C           1.51552800      0.37891600      0.45618200
C           0.33188900      1.31005500     -1.48257000
H          -0.90988200      2.41827100      0.33613500
H          -0.52954500      0.11009600      0.07439800
H           3.51003500     -0.49026100      1.14946500
H           0.59590500      0.45310400     -2.12247600
H           1.06491000      2.12342800     -1.60938400
