13
b3lypvdz=-422.785885704473 
F           1.21034700      2.21961100     -1.70046100
O          -0.10914100      1.99692000      0.90554200
O          -1.62240600      3.52519100      1.49836300
N          -2.38557800      1.58684700      0.54661700
C           0.24246100      0.90593800      0.05017000
C           0.23619300      1.27060700     -1.42413100
C          -1.39916700      2.43870000      1.02527800
H          -2.24190600      0.58634600      0.64666900
H          -3.30760200      1.88853700      0.84885700
H          -0.40420800      0.02283900      0.21113200
H           1.25938000      0.62511500      0.36065400
H           0.44962200      0.36493800     -2.02132000
H          -0.74469400      1.67601000     -1.72317000
