14
b3lypvdz=-369.54989017198 
F          -0.93939500      1.81474400     -1.86184400
O          -0.17495100      1.99973900      0.79434400
C           3.88695400     -0.59549300      1.19707000
C           0.22689100      0.90344500     -0.01702100
C           2.59197400     -0.05995100      0.78715300
C           1.52072400      0.38946200      0.43728400
C           0.32227800      1.34046700     -1.47956200
H          -0.95725000      2.37208000      0.35506800
H           4.71238200     -0.05296700      0.70976400
H           3.97858800     -1.66092800      0.92767700
H           4.02299300     -0.50972800      2.28799900
H          -0.52322400      0.08583900      0.04242600
H           0.59907000      0.50379100     -2.14060000
H           1.04466500      2.16659900     -1.58305700
