9
b3lypvdz=-254.150275047146 
F           0.66651300      0.23600000     -2.25608300
C           0.17158900      0.87656300     -0.00806100
O          -0.15418500      1.97140200      0.83225400
C           0.32031400      1.32401800     -1.45784500
H          -0.57031700      0.05608400      0.05743100
H           1.13292800      0.47672600      0.35334000
H          -1.06806600      2.23042400      0.64309700
H          -0.63011500      1.74586400     -1.83705300
H           1.10193800      2.09891800     -1.54448000
