16
b3lypvdz=-234.461327862731 
C           0.32621200      0.74828100     -0.12975500
C          -0.81090000     -0.22712600     -0.01905900
C           0.31659200      1.51813900     -1.46029100
C          -0.67089400     -1.55490600      0.14364200
C          -1.74087300     -2.55394300      0.25462800
C          -3.05836500     -2.33142100      0.38890700
H           0.26456700      1.47696100      0.70176800
H           1.28408300      0.21411000     -0.00698800
H          -1.81724800      0.20339500     -0.10778400
H           0.42594700      0.83133300     -2.31533200
H          -0.62975000      2.06989300     -1.59353600
H           1.13747800      2.25312300     -1.50186000
H           0.34828600     -1.95816400      0.19303000
H          -1.39873600     -3.59525300      0.23034100
H          -3.47973900     -1.32403800      0.44751600
H          -3.76365900     -3.16278600      0.45437500
