18
b3lypvdz=-289.7912165005 
N          -2.63790500      1.56666000      0.82308300
C           0.17432300      0.82556700     -0.00471300
C          -0.95075600     -0.14709400      0.28723400
C          -2.17316200      0.26233000      0.71474300
C           0.35327800      1.15292600     -1.49712600
C          -0.66828000     -1.57741000      0.10665000
C          -1.53146500     -2.53954300     -0.26642800
H          -1.92919400      2.29364000      0.77034600
H          -3.28947500      1.73233800      1.58505000
H           0.02625100      1.76350300      0.56286800
H           1.11687200      0.39635900      0.38309400
H          -2.92213500     -0.49049400      0.98017800
H           0.58295600      0.24246000     -2.07464100
H          -0.56514400      1.59016400     -1.92303700
H           1.17684600      1.87034000     -1.65492000
H           0.37192700     -1.87513300      0.30075400
H          -1.21681800     -3.58612400     -0.30635600
H          -2.56472000     -2.31508700     -0.54628000
