13
b3lypvdz=-331.50412330033 
F           1.18071500      2.33785600     -1.68204400
O          -0.38338700      2.15915100      0.56774400
C           0.06866700      0.98622000     -0.08032200
C          -0.91822100     -0.13354100      0.11192600
C          -2.09606100     -0.00230700      0.72599600
C           0.27652900      1.27001100     -1.56481200
H           0.19811400      2.87511000      0.26690700
H           1.04879800      0.66338400      0.33640600
H          -0.60375500     -1.10359900     -0.29118200
H          -2.40794800      0.95930600      1.13800900
H          -2.77219700     -0.85342500      0.84148000
H           0.69919000      0.40387800     -2.10042900
H          -0.67314400      1.58175600     -2.03047900
