13
b3lypvdz=-195.174439557038 
C           0.16663800      0.77401800      0.01842200
C          -1.00974800     -0.16077400      0.18319300
C          -2.22805600      0.30348800      0.51214400
C          -0.70857300     -1.59410900     -0.04740200
C          -1.55018600     -2.63575300      0.02754300
H          -0.11227800      1.81927300      0.21747100
H           0.98813600      0.49878800      0.70344700
H           0.57783700      0.71464800     -1.00583200
H          -2.39963900      1.37042100      0.67472600
H          -3.09012900     -0.35571700      0.63849400
H           0.33350100     -1.80752700     -0.31624300
H          -1.19738600     -3.65062700     -0.17167100
H          -2.60681800     -2.52193000      0.28751000
