14
b3lypvdz=-410.870120336691 
F          -0.70373500      1.46363600     -2.05619400
F           1.36180800      2.15554600     -1.68625100
N          -2.85357500      1.21070500      0.04825700
C           0.17795400      1.19512200      0.13946300
C          -0.74683300      0.10363900      0.61934200
C          -2.09342600      0.16006500      0.55265600
C           0.45540900      1.17957900     -1.35187900
H          -2.40142000      1.72168000     -0.70635900
H          -3.79736600      0.94666900     -0.21877800
H          -0.22421100      2.19799400      0.37697400
H           1.15416800      1.11607600      0.64348000
H          -0.30045500     -0.77248100      1.09394600
H          -2.68291400     -0.65227500      0.99135400
H           0.83409700      0.21684500     -1.73240900
