14
b3lypvdz=-410.866998158041 
F           0.77077300      0.14663100     -2.26093500
F           1.64574200      2.02158100     -1.50177300
N          -2.69121300      1.45336600      0.96151500
C           0.16526500      0.84940600     -0.07328300
C          -1.00764300     -0.08504300      0.02392500
C          -2.22675900      0.21913800      0.51231300
C           0.50478500      1.25427800     -1.49858800
H          -1.97076500      2.12613100      1.21245400
H          -3.39893500      1.39595400      1.68855600
H           0.00309700      1.77942700      0.49734300
H           1.07896700      0.38338900      0.33781100
H          -0.85978100     -1.09807000     -0.35589100
H          -2.99563500     -0.56121400      0.52988300
H          -0.29309800      1.82422600     -2.00473200
