14
b3lypvdz=-233.218179616268 
C           3.97861500     -0.53821900      1.10652500
C           0.18118900      0.75970800      0.08863800
C           2.62702200     -0.11699900      0.74086600
C          -0.90900900     -0.27899000     -0.06416300
C           1.51106400      0.25893700      0.44549400
C          -0.76953000     -1.59591500      0.09526200
H           4.73665800      0.00103400      0.51637500
H           4.12818300     -1.61706400      0.93280200
H           4.18515300     -0.33916500      2.17170700
H          -0.14363500      1.50784200      0.83702700
H           0.25244000      1.33042800     -0.85847800
H          -1.88375500      0.14039400     -0.34094100
H          -1.61597500     -2.27391700     -0.03842300
H           0.19518000     -2.03347500      0.36561000
