12
b3lypvdz=-355.535965765943 
F          -0.95606400      1.93309300     -1.74581500
F           1.14864300      2.48928200     -1.40018200
C           0.25224500      0.70654000     -0.11961000
C          -0.83987200     -0.32511400     -0.05783100
C           0.28786500      1.42652400     -1.45773100
C          -0.65127300     -1.62988000      0.15129600
H           0.08936000      1.48775800      0.64441100
H           1.24020600      0.25503200      0.06596700
H          -1.85457500      0.05970500     -0.20867200
H           0.59319900      0.78200400     -2.29980200
H          -1.49369300     -2.32501400      0.19087100
H           0.34826100     -2.05112900      0.30129800
