16
b3lypvdz=-333.665516733985 
F           1.42929800      2.33891300     -1.49176200
C           0.28882700      0.77097700     -0.11250700
C          -0.84800100     -0.20338500     -0.01682000
C           0.33108500      1.48689900     -1.45914600
C          -0.68849400     -1.53222400      0.11726600
C          -1.73946700     -2.55024700      0.21247100
C          -3.05116000     -2.34994600      0.41354600
H           0.20922900      1.54218200      0.67652500
H           1.24796200      0.24983400      0.03981400
H          -1.85920400      0.21715600     -0.09184800
H           0.43447300      0.76616300     -2.28864100
H          -0.57930000      2.09088400     -1.62481800
H           0.33757500     -1.91904100      0.15117200
H          -1.38561300     -3.58296000      0.11373800
H          -3.47664100     -1.35260100      0.55364900
H          -3.74656900     -3.19090300      0.45666100
