14
b3lypvdz=-270.35696546999 
O           0.22610800      1.77450000      1.02597100
C           0.19623000      0.89260600     -0.09123400
C          -0.90084400     -0.12781000      0.00510100
C          -0.70551500     -1.45668500      0.05497900
C          -1.73089500     -2.50260400      0.16483300
C          -3.05724600     -2.33271000      0.27862300
H          -0.57058000      2.32391100      0.99451200
H           1.17748500      0.39264900     -0.12089700
H           0.09220600      1.45975200     -1.04103300
H          -1.92145100      0.27581100      0.04395900
H           0.32901300     -1.81913900      0.01485300
H          -1.34254200     -3.52738600      0.16023800
H          -3.51909500     -1.34156300      0.29860500
H          -3.73017400     -3.18823300      0.36519100
