15
b3lypvdz=-308.390914957328 
O          -0.17901200      1.76900500      0.91251400
C           0.20798300      0.79128400     -0.07388900
C           2.63634000     -0.11410300      0.62222600
C          -0.83847200     -0.31610100     -0.10739100
C           1.53601500      0.30117400      0.33285900
C           0.32073500      1.45836600     -1.46112600
C          -0.67042400     -1.60092600      0.20487300
H          -1.02779000      2.13691700      0.62088300
H           3.61194700     -0.47082200      0.88849000
H          -1.82799200      0.04397000     -0.42076200
H           0.68523000      0.74164900     -2.21308800
H          -0.66759000      1.82892500     -1.78433500
H           1.01398300      2.31067600     -1.40951000
H          -1.50723800     -2.30309300      0.16612800
H           0.30378300     -1.98862100      0.51342800
