14
b3lypvdz=-729.915805436811 
Cl         -1.29244500     -3.88567500     -1.52700400
O          -0.14266500      2.07390200      0.77555000
C           0.05795200      0.86528800      0.07403200
C          -0.98114900     -0.21444900      0.34042100
C          -1.92554100     -0.04231400      1.28107400
C          -0.81128000     -1.41447500     -0.50231100
C          -1.58128800     -2.51065900     -0.48535200
H          -0.95429700      2.47527800      0.42887300
H           1.04714200      0.48944900      0.39297600
H           0.13067600      1.03568900     -1.02171900
H          -1.94730100      0.87811600      1.86607000
H          -2.67556000     -0.80168100      1.51032500
H           0.02889000     -1.39658100     -1.20611100
H          -2.44903600     -2.65038800      0.16107500
