14
b3lypvdz=-233.210005109917 
C           3.87645400     -0.58131900      1.14073700
C           4.95947300     -0.85220100      0.10429300
C           4.28963100     -2.00833000      0.80000200
C           0.16985700      0.83666600      0.01760700
C           2.58179000     -0.08360700      0.73255500
C           1.48853000      0.33592200      0.40274100
H           4.22753900     -0.19842500      2.10424400
H           5.98628300     -0.60272200      0.38511500
H           4.70753900     -0.65615900     -0.94061500
H           3.57515500     -2.61114200      0.23460100
H           4.85673900     -2.55887800      1.55531000
H          -0.12400300      1.69822800      0.63967900
H          -0.60574300      0.06052200      0.13608700
H           0.15475700      1.17094700     -1.03435500
