14
b3lypvdz=-311.644733012373 
F           1.55504100      2.11878900     -1.56861200
N          -2.66679000      1.45264700      0.84960100
C           0.21481200      0.84031900     -0.04177100
C          -0.93432400     -0.12412400      0.09494300
C          -2.17723100      0.18865400      0.51403300
C           0.43567200      1.28360800     -1.48535000
H          -1.95927700      2.14791700      1.07399800
H          -3.40601700      1.44710900      1.54646100
H           0.06746800      1.74371100      0.57854700
H           1.14839800      0.37099800      0.31716800
H          -0.75281900     -1.16081800     -0.20169400
H          -2.93486900     -0.60058800      0.56755300
H           0.61426500      0.41319700     -2.14153100
H          -0.44092900      1.83548200     -1.86854800
