10
b3lypvdz=-255.068526284221 
F          -0.93628400      1.78062500     -1.87719400
C           0.23198100      0.84915900     -0.02643400
C           2.58349200     -0.09836300      0.82142500
C           1.51342200      0.33006900      0.44533400
C           0.31572100      1.32045300     -1.48013200
H          -0.09717200      1.69230500      0.60590700
H          -0.54437100      0.06826100      0.05618200
H           3.52919000     -0.47812100      1.15477400
H           0.61400200      0.49275700     -2.14568300
H           1.04521800      2.14145400     -1.58778000
