12
b3lypvdz=-256.312658550375 
F           0.63312600      0.49272100     -2.41940900
C           0.22273200      0.73633500     -0.07638500
C          -0.85476600     -0.30871000      0.00474800
C           0.28899700      1.41952500     -1.43813000
C          -0.63346500     -1.62243500      0.08591500
H           0.04744600      1.52591400      0.67897500
H           1.20632300      0.28647300      0.14158500
H          -1.88820100      0.06230100     -0.03022100
H          -0.68634700      1.86109400     -1.71414700
H           1.05010600      2.21999500     -1.44163000
H          -1.45458400     -2.34253000      0.12717900
H           0.38423300     -2.02598100      0.11022000
