17
b3lypvdz=-309.651155855208 
O          -0.38761300      2.29724700      0.49809900
C           0.08154300      1.06588600     -0.04038900
C          -0.94857900     -0.04013000      0.03863700
C          -2.08392400      0.02704300      0.75673500
C           0.61602500      1.24662400     -1.46866400
C          -3.12761800     -1.00071900      0.87572400
C          -3.17532000     -2.20281200      0.27810100
H          -1.12375800      2.58809500     -0.06412900
H           0.93276800      0.79088800      0.61090800
H          -0.70363900     -0.94229600     -0.53497800
H          -2.25569100      0.95095800      1.31913100
H           1.05880200      0.31168300     -1.85114600
H          -0.19822700      1.53666100     -2.15559800
H           1.38652600      2.03214200     -1.48938500
H          -3.96237400     -0.72480900      1.53055300
H          -2.38748000     -2.55896800     -0.39177400
H          -4.01613900     -2.87949100      0.44717400
