13
b3lypvdz=-331.503296033556 
F          -0.53104900      1.95244000     -2.12531900
O          -0.30195200      2.15383000      0.62175500
C           0.04098500      0.95194500     -0.04284600
C          -1.05403000     -0.09525800      0.00031500
C          -2.16762400      0.00661000      0.72914100
C           0.49665300      1.25963600     -1.46988800
H          -0.94089600      2.59939000      0.03963500
H           0.92707900      0.54724700      0.48483100
H          -0.86317200     -0.99233000     -0.60220500
H          -2.35273600      0.89203700      1.34266300
H          -2.92025100     -0.78617600      0.74033700
H           0.71853400      0.34449300     -2.04442200
H           1.37926100      1.91893300     -1.45829800
