14
b3lypvdz=-332.409994867045 
F           0.68559500      0.22552000     -2.38752100
C           0.16651000      0.89163700     -0.13189700
C           2.42391800     -0.06037100      0.96187400
C          -0.95174600     -0.12868300     -0.01396000
C           1.40828900      0.37293200      0.46271500
C          -2.05770000      0.04894200      0.71214700
C           0.38020700      1.32375900     -1.59378300
H          -0.12861600      1.80513900      0.41781800
H           3.32236400     -0.44631700      1.40167000
H          -0.79185400     -1.05452700     -0.57549900
H          -2.22948000      0.96604600      1.28548500
H          -2.83576100     -0.71723700      0.76463500
H          -0.54430000      1.78109900     -1.98468500
H           1.21477500      2.04046100     -1.67029800
