16
b3lypvdz=-333.663564194841 
F           0.22389600      0.36209200     -2.43767700
C           0.26438900      0.70805300     -0.07121700
C          -0.73145100     -0.38397500      0.26704500
C          -2.10227700      0.06652700      0.59129400
C           0.03867500      1.32540500     -1.44844700
C          -0.37400900     -1.67908400      0.27220200
C          -3.24150500     -0.55445900      0.25337400
H           0.19590700      1.52293400      0.67463600
H           1.29123900      0.31062600     -0.02526700
H          -2.17117900      1.01445700      1.14143500
H          -0.98671800      1.72404700     -1.54853200
H           0.75499000      2.14618600     -1.63075300
H          -1.08023400     -2.46626600      0.54542700
H           0.64002900     -1.98443200      0.00254400
H          -3.24069400     -1.47257000     -0.34078900
H          -4.21075700     -0.15444200      0.56202500
