10
b3lypvdz=-193.008581119506 
C           0.18507800      0.84831400      0.06891200
O          -0.13952300      2.13697300      0.56082600
C          -0.97029900     -0.12079700      0.04082700
C          -2.16172500      0.09612000      0.60542500
H           0.97328700      0.45690200      0.73763400
H           0.64465100      0.89574800     -0.94146000
H          -0.80391700      2.50957400     -0.03888200
H          -0.77450800     -1.06012400     -0.49286700
H          -2.36003800      1.02386800      1.14869800
H          -2.96490500     -0.64267900      0.54948800
