11
b3lypvdz=-367.439568024335 
F           1.38860800      2.14474800     -1.67522600
O          -0.11357700      2.11598200      0.76987900
O          -1.73939300      3.44795700      1.53473200
C           0.16280400      0.94797900     -0.01158100
C           0.33175100      1.26972400     -1.48298300
C          -1.41105800      2.45359200      0.95533100
H          -0.63586300      0.19229600      0.11157300
H           1.09586700      0.53358800      0.39681200
H           0.53623200      0.33559900     -2.03821500
H          -0.57998100      1.73700900     -1.89558500
H          -2.12438800      1.70652500      0.52736200
