9
b3lypvdz=-353.371899796254 
F          -0.82409600      1.87117200     -1.89472500
F           1.34341800      2.18070500     -1.65118600
O          -0.12891000      2.04249800      0.79312200
C           0.17955500      0.91841600      0.00442900
C           0.34296000      1.27180600     -1.46287700
H          -0.85476400      2.50843900      0.34797500
H          -0.59298800      0.12361100      0.07133900
H           1.12572500      0.49537300      0.37786800
H           0.53460100      0.39688000     -2.10854400
