14
b3lypvdz=-158.33548931633 
     C      5.83654600     12.15595400     -0.00001900
     C      7.17757800     12.90273700     -0.00010100
     C      7.02719400     14.42983100      0.00010800
     C      8.36823400     15.17661600      0.00000700
     H      5.23514400     12.41144500      0.88981100
     H      5.23488400     12.41174300     -0.88958500
     H      7.76872000     12.59566000      0.88319800
     H      7.76847800     12.59588600     -0.88363900
     H      6.43602900     14.73693400     -0.88316600
     H      6.43630800     14.73671900      0.88364500
     H      8.21811100     16.26934300      0.00018800
     H      8.96987300     14.92083600      0.88959300
     H      8.96962700     14.92106900     -0.88981200
     H      5.98667500     11.06322600     -0.00022900
