23
b3lypvdz=-276.191486854821 
     C      4.81727700      8.35320200     -0.00001500
     C      4.63339200      9.87583400      0.00003300
     C      5.96447100     10.64123600     -0.00012600
     C      5.81146600     12.16955900     -0.00000300
     C      7.15586300     12.91349900     -0.00009700
     C      7.02843500     14.44306200      0.00008400
     C      8.38526200     15.16097500      0.00005600
     H      5.37896200      8.01762900     -0.88916600
     H      5.37920700      8.01761500      0.88897400
     H      4.03848000     10.17317900     -0.88355000
     H      4.03874400     10.17313300      0.88380500
     H      6.55729700     10.33601700     -0.88343400
     H      6.55753200     10.33592800      0.88299300
     H      5.22152500     12.47778200      0.88395900
     H      5.22133800     12.47789600     -0.88379900
     H      7.74464300     12.60016700      0.88306900
     H      7.74440600     12.60036000     -0.88348700
     H      6.44412400     14.76183800     -0.88339200
     H      6.44427100     14.76164600      0.88372800
     H      8.26040800     16.25676300      0.00023500
     H      8.98104500     14.89089600      0.88944000
     H      8.98087100     14.89118300     -0.88953200
     H      3.84678000      7.83090200      0.00012500
