17
b3lypvdz=-197.62077795457 
     C      5.98917800     10.63419800      0.00011600
     C      5.82260800     12.15868900      0.00003100
     C      7.16133800     12.91072500      0.00000700
     C      7.02192800     14.43915400     -0.00009900
     C      8.37232100     15.16871000     -0.00010600
     H      6.54687400     10.29206200     -0.88898500
     H      6.54687400     10.29216600      0.88925800
     H      5.23094200     12.46253600      0.88358700
     H      5.23095000     12.46244100     -0.88356300
     H      7.75182300     12.60076000      0.88349800
     H      7.75185900     12.60063900     -0.88342000
     H      6.43484600     14.75277200     -0.88359000
     H      6.43479900     14.75289900      0.88331700
     H      8.23775100     16.26333800     -0.00022200
     H      8.97022400     14.90406700      0.88945900
     H      8.97031800     14.90390300     -0.88956000
     H      5.01266900     10.12314100      0.00017300
