11
b3lypvdz=-119.049899153584 
     C      7.17152700     12.91120500      0.00000200
     C      7.01862400     14.43618600      0.00000100
     C      8.36465400     15.17134700     -0.00000000
     H      7.72662300     12.56481200      0.88935300
     H      7.72657300     12.56480400     -0.88938000
     H      6.43029200     14.74591600     -0.88328900
     H      6.43029700     14.74591500      0.88329400
     H      8.22570100     16.26567700     -0.00000100
     H      8.96314600     14.90788200      0.88976700
     H      8.96314600     14.90788200     -0.88976800
     H      6.19051800     12.40807200      0.00002000
