5
b3lypvdz=-40.480481450557 
     C     -8.37135200    -15.16987200     -0.00000000
     H     -8.19117400    -16.25560800      0.00000000
     H     -8.94330600    -14.89168100      0.89778100
     H     -8.94330600    -14.89168100     -0.89778100
     H     -7.40796200    -14.63865900      0.00000000
