8
b3lypvdz=-79.764357305032 
     C     -8.37250300    -15.17007900      0.00000000
     C     -7.02969800    -14.42992100      0.00000000
     H     -8.22607600    -16.26391100      0.00000000
     H     -8.97300600    -14.91290400      0.88935300
     H     -8.97300500    -14.91290400     -0.88935300
     H     -6.42919500    -14.68709600     -0.88935300
     H     -6.42919400    -14.68709600      0.88935300
     H     -7.17612300    -13.33608900      0.00000100
