15
b3lyp631gd=-382.130911785 
O          -1.46182400      1.73532400     -0.19673500
H          -0.47255800      1.80625800     -0.08849700
H          -1.81979900      2.30217500      0.50190900
O           2.22455400     -0.54727400     -0.06566500
H           1.46535000     -1.19526400     -0.07462500
H           2.72479700     -0.77972500      0.73065900
O          -2.13337600     -0.87107100      0.03077100
H          -2.53957000     -0.94240400      0.90695400
H          -1.92805400      0.09865700     -0.07768700
O           1.20256800      1.93242100      0.15074000
H           1.59114200      1.01379200      0.10860700
H           1.57360500      2.37852400     -0.62524800
O           0.16393700     -2.27548200      0.00785400
H          -0.68920900     -1.75874300      0.03520400
H           0.11261200     -2.77456400     -0.82082400
