6
b3lyp631gd=-152.830148673 
O          -0.08992800      1.31363000      0.00000200
H           0.73861100      1.81395100     -0.00001700
H           0.19698600      0.37974400     -0.00000400
O           0.13512200     -1.53781600     -0.00000300
H          -0.45935200     -1.60595800      0.76398300
H          -0.45938600     -1.60595800     -0.76396300
