12
b3lyp631gd=-305.703471168 
O           1.35029800      1.35057800      0.05943400
H           1.46330100      0.36035900      0.04826300
H           1.75291500      1.64762200     -0.77037200
O          -1.35029800     -1.35057800      0.05943400
H          -1.75291500     -1.64762200     -0.77037200
H          -1.46330100     -0.36035900      0.04826300
O          -1.35061200      1.35038200     -0.05938000
H          -0.36039900      1.46348400     -0.04853900
H          -1.64744100      1.75282400      0.77059100
O           1.35061200     -1.35038200     -0.05938000
H           0.36039900     -1.46348400     -0.04853900
H           1.64744100     -1.75282400      0.77059100
