27
b3lyp631gd=-687.879300571 
O          -2.42020200      1.24433700     -0.09158000
H          -2.50239100      0.24013500      0.00861900
H          -3.32450300      1.58990900     -0.12391200
O           1.59276900     -1.98964800      0.14651000
H           1.00765900     -1.75997000      0.90290800
H           0.98463300     -1.95143900     -0.62627900
O          -0.41557100      1.53431100      1.80768100
H          -1.22284200      1.60634300      1.24839900
H           0.31004600      1.80131800      1.19789500
O           3.26200700      0.05064700     -0.08811300
H           3.77653100      0.03398900      0.73259400
H           2.67924400     -0.77086600     -0.03634600
O          -0.29408700     -1.09257900      2.01268900
H          -0.33188800     -1.34092000      2.94816400
H          -0.29073200     -0.08135100      1.99243700
O          -0.44448200      1.09707400     -2.04233100
H           0.29628000      1.45579400     -1.50080800
H          -1.24114800      1.29760000     -1.50049000
O          -0.38099900     -1.52520300     -1.77345200
H          -0.35421000     -0.52795700     -1.94005400
H          -0.42245600     -1.94051600     -2.64758400
O           1.46579600      1.96808300     -0.19840800
H           1.91631400      2.80466100     -0.38706000
H           2.19211800      1.26856400     -0.14171900
O          -2.35845600     -1.37226300      0.16919900
H          -1.78675600     -1.60786100     -0.59795000
H          -1.74068900     -1.43735400      0.93377500
