57
b3lyp631gd=-1452.23859007 
O          -0.10733800     -0.34284200     -2.20440800
H          -0.00483400     -0.98003700     -1.44931600
H          -0.98153500     -0.61087600     -2.61969900
O           2.48640100     -1.63960900      2.60540000
H           2.67081500     -1.90780400      3.51752400
H           1.55008200     -1.29174400      2.59408600
O          -4.08719000      0.48797800     -1.16225600
H          -4.95716600      0.75458900     -1.49555300
H          -3.63380400      1.35892500     -0.88082700
O          -2.94244100      2.71151900     -0.45562700
H          -2.03838300      2.67938400     -0.83707200
H          -2.78901400      2.69258700      0.52703000
O          -2.57001600     -1.13345700     -2.87150200
H          -3.12921900     -0.48584000     -2.38259000
H          -2.61338300     -1.93145900     -2.30291900
O           4.14050200      0.13906000      1.20987600
H           4.14292800     -0.34601400      0.34835300
H           3.60630400     -0.43596200      1.80441500
O          -3.99096600     -1.35836800      0.87957200
H          -4.13735900     -0.65965100      0.19515000
H          -3.51235600     -2.06266400      0.38625900
O           2.49856300      0.09157100     -2.88377100
H           1.53921800     -0.14848200     -2.83968000
H           2.51898900      1.02879100     -2.59394100
O          -0.31011700      2.10405800     -1.15884200
H          -0.30316700      1.18457500     -1.55885600
H           0.48738600      2.53695000     -1.53242800
O          -0.03627000     -2.10235200     -0.13608400
H           0.81425200     -2.63084400     -0.05623000
H          -0.06815200     -1.55656200      0.69419900
O           2.34865300     -3.22283900      0.25331600
H           2.91011900     -2.64627800     -0.31489400
H           2.49764100     -2.86859800      1.15562600
O          -2.53173300     -0.30981400      2.76775400
H          -3.08652600     -0.73216500      2.02471000
H          -3.00204400     -0.51807100      3.58872100
O           2.33938000      2.70251500     -1.77496400
H           2.76020400      3.46548900     -2.19783900
H           2.67883000      2.67262200     -0.84050700
O           3.83654100     -1.29527100     -1.11939300
H           3.29332600     -0.77193600     -1.80274800
H           4.61682200     -1.60789300     -1.60156300
O           0.07052900     -0.63614900      2.14520900
H          -0.83562400     -0.63965100      2.54948700
H           0.22235800      0.31993100      1.88362100
O           0.35626400      1.91459400      1.43475400
H           0.07834700      1.96218000      0.47560500
H           1.29036100      2.22390100      1.42599200
O           3.01308400      2.44292000      0.84108900
H           3.58457900      3.08310300      1.29145100
H           3.45282000      1.53180900      0.99153900
O          -2.44876100     -3.01857900     -0.74905900
H          -2.49558700     -3.98496100     -0.79177000
H          -1.51060000     -2.79278000     -0.48304700
O          -2.29276300      2.47445200      2.19815800
H          -1.31599000      2.49831100      2.13154800
H          -2.47922100      1.54201600      2.44237600
