60
b3lyp631gd=-1528.67641398 
O          -4.15593700     -2.41190600     -0.02322000
H          -3.88360000     -2.04857600     -0.92936600
H          -4.65772000     -3.22075300     -0.20300300
O          -5.20207000     -0.02294300      0.91799100
H          -5.01085200     -0.95562900      0.66415300
H          -4.51735000      0.17339300      1.59890200
O          -3.55480100     -1.29332500     -2.32514800
H          -3.99370900     -0.42389300     -2.18724000
H          -2.59365000     -1.07290300     -2.32303700
O          -0.13872900      3.87679800     -0.37298700
H          -0.36926900      3.75357800      0.56615400
H          -0.85989000      3.37106200     -0.81446300
O           3.44149800      0.40650200      2.52882100
H           3.75078900     -0.49577200      2.18379700
H           3.72039300      0.45100000      3.45541600
O           4.44822000      1.85079700      0.33788600
H           3.59585800      2.12181600     -0.07882000
H           4.18213200      1.52035100      1.22468800
O          -4.56228600      1.13289600     -1.34823400
H          -5.31813200      1.64544000     -1.67119900
H          -4.84125300      0.75700400     -0.44863700
O           4.30172500     -1.82976100      1.46236700
H           3.55514800     -2.30533400      1.03065600
H           4.80096400     -1.45025000      0.70250000
O           5.20224400     -0.41221900     -0.74501500
H           6.12099300     -0.32223300     -1.03869400
H           4.93236200      0.49986700     -0.39004000
O          -3.06165600      0.24840700      2.69842000
H          -2.43073900      0.97909800      2.40705900
H          -3.27198900      0.43368500      3.62583600
O          -0.98668600     -0.40507100     -1.82853700
H          -0.16989400     -0.19343900     -2.34171600
H          -0.65899500     -0.90138300     -1.02864800
O          -1.38678200      2.06953900      1.73787000
H          -1.67117100      1.97222500      0.78991800
H          -0.51381000      1.60554300      1.77245000
O           1.88751800      2.11729200     -0.65817000
H           1.73695800      1.61277400     -1.49433400
H           1.22539200      2.86580400     -0.63420600
O          -2.09316500     -2.26456900      1.85107300
H          -2.38627200     -1.42568300      2.27243000
H          -2.80501300     -2.45447100      1.19786000
O           0.00786800     -1.58434300      0.39351300
H          -0.75385500     -1.90807200      0.97203600
H           0.36843700     -0.77285200      0.84805800
O           0.97238600      0.69635700      1.42720200
H           1.76159100      0.59937700      2.01542000
H           1.32190500      1.18572300      0.62820000
O           1.46375100      0.39225900     -2.77336900
H           2.13678200     -0.35377700     -2.60479400
H           1.60338300      0.66359400     -3.69327100
O          -1.98798800      1.94147700     -0.91952200
H          -1.58056100      1.10635100     -1.27652800
H          -2.95107600      1.84983600     -1.11600300
O           2.23656300     -2.91396900     -0.08400200
H           2.09001000     -3.87130600     -0.10782400
H           1.34587900     -2.49943200      0.13441600
O           3.19206600     -1.50462300     -2.30506600
H           3.97694200     -1.10160100     -1.86437300
H           2.82296300     -2.10690600     -1.61872700
