63
b3lyp631gd=-1605.11166428 
O           0.58592700      1.28991100     -2.35058300
H           1.55096500      1.49100500     -2.27269000
H           0.37660500      0.82529800     -1.49478100
O           3.59776800     -1.02684000     -1.38997400
H           3.30089600     -1.14208600     -0.45564000
H           2.91593400     -1.52637600     -1.89714800
O           2.65821600      2.80429200      0.80056000
H           2.89717600      2.37322500     -0.05154000
H           1.78268100      3.22728900      0.64716800
O          -3.59555700      1.14548100      1.08330400
H          -3.55527000      0.20333100      1.36967700
H          -2.74943300      1.51975500      1.44310000
O          -1.05785500      1.77614100      1.77954100
H          -0.65652900      1.11290000      1.15875400
H          -0.69506700      2.64044600      1.46845300
O           3.20748400      1.54114200     -1.65332400
H           3.92400100      1.91589300     -2.18687200
H           3.40477200      0.54494100     -1.57753400
O          -0.12979600     -0.91173300     -3.78539900
H          -1.06903100     -0.94083000     -3.50720300
H           0.18202400     -0.03761800     -3.43994900
O           2.30304600     -1.06380400      1.01114500
H           1.97819000     -1.89245500      1.44464000
H           2.53942200     -0.41445900      1.72255200
O           0.11912700      0.54249700      3.95111500
H           1.04541600      0.66911900      3.65828500
H          -0.38398400      1.11470500      3.32759900
O          -3.30802500      1.55331900     -1.45022900
H          -4.11623500      2.02746200     -1.69970700
H          -3.42583300      1.34132700     -0.45149400
O           0.08912600      3.88723500      0.47949300
H          -0.02599600      4.82732000      0.68258400
H          -0.38581700      3.72907000     -0.40436500
O          -1.11478200      3.34628500     -1.78212800
H          -1.91181900      2.79477000     -1.61708400
H          -0.46968100      2.69711900     -2.15987200
O          -2.77956200     -0.77406400     -2.68884600
H          -3.55614500     -1.04885900     -3.19817900
H          -2.99528500      0.12602600     -2.31057900
O          -1.76503200     -2.00916800     -0.47436100
H          -2.36982800     -1.93298300      0.30982900
H          -2.25844100     -1.69394900     -1.26756800
O           0.02440000      0.00938000     -0.01612500
H          -0.60027000     -0.74630900     -0.18085700
H           0.85930500     -0.39515000      0.34825700
O           0.98115900     -3.25206300      1.86473800
H           0.68468700     -3.57403100      0.94691200
H           1.35254700     -4.02635300      2.31296600
O           2.64973900      0.99597400      2.70632200
H           2.61411500      1.72592600      2.00336100
H           3.45892600      1.16488800      3.21137900
O          -3.08317300     -1.50142600      1.80588000
H          -2.26544400     -1.57756700      2.42519800
H          -3.75650400     -2.07041200      2.20817500
O           0.16382000     -3.94534200     -0.52438000
H           0.72949700     -3.51846000     -1.20981400
H          -0.66438800     -3.41175000     -0.56214200
O          -1.01032900     -1.83350500      3.30605700
H          -0.55587300     -0.99167600      3.59273700
H          -0.33347000     -2.35504900      2.82258500
O           1.52874300     -2.53692600     -2.53867700
H           1.84482300     -3.12491700     -3.24173500
H           0.84281800     -1.94479500     -2.99048800
