45
b3lyp631gd=-1146.48626309 
O           3.10172400     -0.43163800     -2.06691800
H           2.18050800     -0.76762900     -1.98423800
H           3.01704400      0.51737300     -1.82048000
O          -0.14411400      1.32768700      2.36582300
H          -0.22784500      1.38125700      3.32978700
H          -1.04736900      1.63678600      2.00560100
O          -3.70425700     -0.56792900      1.29812300
H          -4.46172300     -0.85520700      1.82916400
H          -3.04454900     -1.33682300      1.31798600
O          -3.67238700     -0.32609700     -1.47231100
H          -3.90184000     -0.40644100     -0.51846100
H          -3.22956300      0.55439400     -1.52312100
O          -2.52025200      1.94778100      1.52041500
H          -2.99810700      1.08664100      1.54907000
H          -2.48286700      2.16104800      0.55734300
O          -2.00288400     -2.56911600      1.14764100
H          -1.10712200     -2.21051200      1.34858600
H          -1.99007100     -2.68764400      0.17042000
O          -2.36742800      2.12088000     -1.22597500
H          -1.41206100      1.99988900     -1.55693300
H          -2.73162400      2.85514300     -1.74250800
O           3.02392500     -0.94676600      1.89727500
H           3.51766400     -1.19271300      2.69366700
H           3.58930700     -1.25912300      1.11682400
O           0.45746200     -0.96476600     -1.41077100
H           0.44749400     -0.97645800     -0.41934200
H          -0.30091500     -1.54092300     -1.66731500
O           4.46057600     -1.65969200     -0.17175400
H           4.37900200     -2.59716900     -0.40251900
H           4.00571600     -1.17423400     -0.93290400
O           2.50900600      2.13413300     -1.08770100
H           3.07822300      2.89547000     -1.27303900
H           2.51236600      2.02774100     -0.08422700
O          -0.00382200      1.63399500     -2.16881300
H           0.81335500      2.03132700     -1.79379200
H           0.11570900      0.66946500     -1.98123800
O           0.35701500     -1.14788600      1.33255900
H           1.28858700     -1.29418700      1.62264200
H           0.11429300     -0.27603800      1.73792800
O          -1.93297700     -2.28512400     -1.63061400
H          -2.23404100     -2.91074300     -2.30617700
H          -2.59268700     -1.51487700     -1.65146000
O           2.48667000      1.79798900      1.53076500
H           1.54419300      1.80013000      1.81066600
H           2.78070700      0.87418100      1.69935000
