51
b3lyp631gd=-1299.36302672 
O          -2.35193700     -2.80407000      0.34919200
H          -2.55592700     -2.34424500      1.19376400
H          -1.46043100     -2.44327300      0.11934000
O           3.90305700     -1.45577100      1.30193700
H           4.28557900     -0.84085900      0.63384200
H           3.32422000     -0.88067300      1.85087800
O          -3.83638300     -1.43886700     -1.33488800
H          -4.43174400     -2.03063800     -1.81829300
H          -3.27394900     -2.03440400     -0.74058000
O           2.79828300     -0.94426100     -2.45825300
H           2.64488400     -1.74944000     -1.91747000
H           1.90785600     -0.52797400     -2.53904600
O          -2.79125600     -0.93698500      2.42281500
H          -3.28421500     -1.11385500      3.23793400
H          -3.43329900     -0.42002700      1.82877300
O           2.25788900      0.44814600      2.59938400
H           1.26804800      0.32516600      2.52767600
H           2.43352900      0.68039300      3.52333400
O          -0.32748600      0.18671200      1.99946500
H          -1.15262100     -0.17435000      2.40678500
H          -0.17558800     -0.42385000      1.22085200
O          -3.10711300      2.24755400     -0.51763500
H          -2.30300800      2.44202100      0.07126000
H          -3.55013900      3.09931700     -0.64688500
O          -4.47348300      0.23680900      0.78296100
H          -4.06979800      1.05200100      0.39892800
H          -4.46844800     -0.38321800      0.01721100
O           2.36747900     -2.76375600     -0.37132600
H           2.46206300     -3.72336100     -0.28046100
H           2.97112200     -2.34339900      0.32438100
O          -0.00397900     -1.46606600     -0.07079700
H           0.06861600     -0.84593800     -0.85438800
H           0.81347800     -2.02235300     -0.10536700
O           0.31085500      0.24142700     -2.09669800
H           0.55262800      1.11825400     -1.71238800
H          -0.63183500      0.34297900     -2.43009800
O           4.40999400      0.29166600     -0.79139500
H           5.25702800      0.40551300     -1.24734600
H           3.77949700     -0.11155400     -1.47599000
O          -1.01279200      2.68730400      0.97876200
H          -0.28483800      2.81610900      0.32792400
H          -0.79459600      1.82063300      1.40023900
O           3.11796600      2.27579900      0.62199300
H           2.81232000      1.73957100      1.38813300
H           3.68395700      1.65614400      0.10463500
O           1.02106900      2.63747400     -0.89175000
H           1.19631300      3.40645600     -1.45452500
H           1.84937800      2.52231100     -0.31531700
O          -2.29133300      0.55248700     -2.61690700
H          -2.79201800     -0.23312100     -2.30268800
H          -2.57470300      1.25485700     -1.98993200
