48
b3lyp631gd=-1222.91660973 
O          -0.73980200     -2.90274900     -1.46904000
H          -0.22896900     -2.25118700     -2.00363600
H          -0.26238800     -2.94833300     -0.60905800
O          -3.03999500     -1.73711900     -0.94480800
H          -3.72863900     -2.33694600     -1.26744200
H          -2.16308800     -2.19256800     -1.15785100
O          -3.07210400      0.95230600     -1.74356100
H          -3.11070300     -0.01725500     -1.58446700
H          -3.11784600      1.32983700     -0.83643600
O           3.07558700     -0.64549800     -1.86282900
H           3.12663200      0.28190100     -1.53871200
H           3.12250000     -1.18181800     -1.03956400
O           0.61188700      2.93133100     -0.98466600
H           0.57312900      3.82333400     -1.36310000
H           0.08933200      2.33622800     -1.66173100
O           3.03395100      1.87631500     -0.65094300
H           2.14627600      2.31982400     -0.79925300
H           3.70809700      2.53162500     -0.88411600
O          -0.63561700      1.52288400     -2.69519500
H          -0.19799100      0.64636500     -2.79177200
H          -1.56737100      1.32287300     -2.38053400
O           0.66642700      0.95044000      2.87963300
H           0.80553400      1.19386100      3.80757400
H           1.59517300      0.84188300      2.49433500
O          -3.07208000     -0.95213700      1.74361300
H          -3.11060200      0.01742300      1.58449900
H          -3.11788000     -1.32966800      0.83648700
O           3.07578100      0.64551100      1.86292500
H           3.12690700     -0.28189300      1.53885800
H           3.12229200      1.18177500      1.03958600
O          -3.03990200      1.73727600      0.94487900
H          -3.72853600      2.33712300      1.26749600
H          -2.16297500      2.19267900      1.15791400
O           0.66626300     -0.95053100     -2.87965100
H           0.80544900     -1.19396400     -3.80757600
H           1.59495800     -0.84195700     -2.49427000
O          -0.63556900     -1.52293900      2.69511000
H          -1.56729800     -1.32278500      2.38049300
H          -0.19779400     -0.64650200      2.79175800
O          -0.73957700      2.90270200      1.46893100
H          -0.22882400      2.25109900      2.00355800
H          -0.26221900      2.94815500      0.60891900
O           0.61182400     -2.93134000      0.98442400
H           0.57314000     -3.82337200      1.36280100
H           0.08923500     -2.33637300      1.66157200
O           3.03410600     -1.87637500      0.65097600
H           2.14635300     -2.31973200      0.79916800
H           3.70800600     -2.53176900      0.88462300
