33
b3lyp631gd=-840.74243285 
O           0.08224200     -2.25211400     -1.43218300
H           0.52863200     -1.42204700     -1.81342900
H           0.15935600     -2.92911000     -2.12072500
O           1.57473800     -2.25795500      0.89324100
H           1.07833900     -2.46309200      0.06504500
H           0.87182100     -1.91596500      1.49627100
O          -1.89377900      2.11166600     -0.15447700
H          -2.53736300      1.37760000     -0.41422800
H          -2.43159200      2.91550500     -0.09661300
O           1.96639200      2.05205200      0.83760800
H           2.45150400      1.20948500      0.61971000
H           2.62721600      2.66601400      1.18992600
O          -3.56823200      0.18028500     -0.77147400
H          -3.12650700     -0.65645600     -0.42370800
H          -3.62366500      0.04438700     -1.72921500
O           1.44825300     -0.20133700     -2.29632200
H           2.18260700     -0.21944200     -1.64747600
H           1.03344900      0.69276500     -2.15050200
O           0.51239000      2.26128300     -1.59975300
H          -0.39169000      2.22341300     -1.21728000
H           1.08179000      2.38702200     -0.81303100
O          -2.24490800     -1.94754200      0.08473300
H          -1.78747200     -1.71015900      0.92252400
H          -1.50152400     -2.09271600     -0.54286200
O          -0.59377900     -1.16589500      2.21409200
H          -0.53498500     -0.15414700      2.19681900
H          -0.82942700     -1.39874500      3.12443100
O           3.03139500     -0.28027400      0.05062500
H           3.96120000     -0.53486700      0.14578300
H           2.48878200     -1.05291500      0.44042400
O          -0.45159700      1.45156200      2.12212600
H          -1.04894500      1.72174900      1.38456800
H           0.44285300      1.69820600      1.79751200
