21
b3lypvdz=-274.964289265108 
C          -0.97424600      1.42383100     -0.15531400
C          -2.33912100      0.72095200     -0.29017000
C           0.01065500      0.42838800      0.52951100
C          -1.15292000      2.69547900      0.69686000
C           1.41628500      0.92068700      0.74397200
C          -0.45841600      1.79803600     -1.55692100
C           2.51835900      0.35175200      0.24584200
H          -2.26018100     -0.19124800     -0.90601500
H          -3.07826500      1.38598900     -0.76906000
H          -2.73767800      0.42554400      0.69580500
H           0.04505100     -0.49893800     -0.06881900
H          -0.42066000      0.14925800      1.51149900
H          -0.21070900      3.25594500      0.81073000
H          -1.52748600      2.45150000      1.70657000
H          -1.88295200      3.37627900      0.22603600
H           1.52977300      1.81556600      1.36995300
H           0.51541500      2.31214000     -1.51043200
H          -0.32877300      0.89695200     -2.18067900
H          -1.17083500      2.46601800     -2.07101700
H           3.51326600      0.75471500      0.45746500
H           2.46583700     -0.54394300     -0.38381600
