21
b3lypvdz=-274.965659111424 
C          -0.97396300      1.55751200     -0.31084800
C          -0.10024600      0.52843000      0.45848600
C          -0.20991600     -0.88010000     -0.13328300
C           1.33147700      1.01524600      0.66962700
C          -0.57756300      1.80831100     -1.77012300
C           1.47718100      2.26789900      1.50312300
C           2.41170300      0.38521300      0.18551700
H          -2.01992700      1.20209000     -0.27226000
H          -0.96434500      2.51513100      0.23586200
H          -0.53804500      0.48069400      1.47625200
H          -1.26741900     -1.18816800     -0.18343900
H           0.32786700     -1.61486400      0.48581300
H           0.20395900     -0.93963300     -1.15300800
H           0.47336200      2.13428500     -1.85419700
H          -0.69564400      0.90493900     -2.39103900
H          -1.20637700      2.59516600     -2.21755600
H           0.87953300      2.20144400      2.42948800
H           1.11121500      3.15927900      0.96408100
H           2.52616800      2.44936400      1.78025800
H           3.41752200      0.76187400      0.39361600
H           2.34226000     -0.51961000     -0.42047000
