23
b3lypvdz=-276.188429931535 
C          -1.08569700      1.52602600     -0.23544200
C          -2.21060200      0.49757400     -0.44199300
C          -3.42042900      1.03047500     -1.22389800
C          -0.35075800      1.93237300     -1.51916500
C          -4.53716700      0.00494100     -1.47315400
C          -5.30554500     -0.44931900     -0.22269500
C          -6.47303000     -1.38115400     -0.55723200
H          -0.35130700      1.10883600      0.47676000
H          -1.50218300      2.42638600      0.25437300
H          -1.79832000     -0.38642400     -0.96657600
H          -2.54422400      0.13328800      0.54568000
H          -3.84397000      1.90110700     -0.68610500
H          -3.07887900      1.41819000     -2.19933400
H           0.47275800      2.63248600     -1.30321400
H           0.08721300      1.05287300     -2.02408200
H          -1.01761300      2.42991900     -2.24276800
H          -4.11493300     -0.88192700     -1.98470900
H          -5.26257000      0.44256700     -2.18420600
H          -5.68592300      0.44098100      0.31416000
H          -4.62191000     -0.95862400      0.48019800
H          -7.02387800     -1.69013000      0.34624200
H          -6.11972700     -2.29710300     -1.06210700
H          -7.19240700     -0.89074300     -1.23633400
