17
b3lypvdz=-197.618477623503 
C          -0.96206400      1.45774000     -0.14181800
C          -0.33088800      0.19632600      0.46946900
C          -1.16193800      2.58063900      0.90245700
C          -0.19379900      1.93458600     -1.38444800
C           0.11378200      3.17053100      1.51895600
H          -1.97462400      1.17167900     -0.48587900
H          -0.30323100     -0.62531200     -0.26595500
H           0.70423900      0.37144300      0.81006200
H          -0.91152700     -0.15527200      1.33898600
H          -1.80111000      2.18455200      1.71323500
H          -1.74274500      3.39607900      0.43301800
H           0.84181800      2.23329900     -1.14701900
H          -0.14025600      1.13618000     -2.14419800
H          -0.69063000      2.80292300     -1.84961700
H           0.76570100      3.63231700      0.75831700
H           0.70936700      2.40968200      2.05152000
H          -0.13589300      3.95620700      2.25061500
