20
b3lypvdz=-236.902663913821 
C          -0.95096200      1.48732700     -0.18050900
C          -2.19916100      0.56152800     -0.27027700
C          -1.84204500     -0.84784500     -0.76467600
C          -1.24626000      2.76721800      0.61501500
C          -3.36291200      1.15027600     -1.08572800
C          -0.31831000      1.83405000     -1.53919900
H          -0.19896700      0.91140800      0.39320000
H          -2.56026700      0.45040600      0.77098600
H          -1.03981100     -1.29696700     -0.15572300
H          -2.71826500     -1.51591800     -0.71025700
H          -1.49607200     -0.84148800     -1.81306500
H          -0.32673200      3.35154100      0.78621600
H          -1.68890000      2.53674000      1.59907800
H          -1.95158700      3.42413600      0.07867300
H          -4.24488800      0.49037100     -1.03001900
H          -3.67249900      2.13975200     -0.71306800
H          -3.10101200      1.26131000     -2.15253000
H           0.62404300      2.38849700     -1.39334400
H          -0.08235900      0.93850400     -2.13584200
H          -0.98133400      2.47615500     -2.14423000
