17
b3lypvdz=-309.644101368745 
O           7.28206000     -1.38671400      1.51015900
C           2.48285600      0.71663400     -0.25428900
C           3.63164300      0.67251800      0.43538700
C           4.79733600     -0.18328500      0.11782300
C           6.15607700      0.46261400      0.34484100
C           4.64273900     -1.44273000     -0.33351700
C           7.34844200     -0.49010700      0.41258700
H           6.40018000     -1.79008300      1.48984500
H           1.66457100      1.37258400      0.05308400
H           2.32697800      0.10888900     -1.15047600
H           3.75370800      1.34368600      1.29494600
H           6.11430700      1.04106800      1.28579500
H           6.32954100      1.20664600     -0.45635600
H           5.49175300     -2.07446200     -0.60562900
H           3.64910900     -1.88035500     -0.45262400
H           7.45923000     -1.03287300     -0.54922600
H           8.26957100      0.09777100      0.55534800
