12
b3lypvdz=-157.109374074687 
C           7.16064800     -0.63990300      0.67457800
C           3.82314800      0.69249200      0.39650600
C           4.90055200      0.13392500     -0.16369300
C           6.32728900      0.52565600      0.11423500
H           6.74171400     -1.00235000      1.62795700
H           7.18273300     -1.49207800     -0.02643700
H           8.20270500     -0.32753000      0.85762200
H           2.81452600      0.34456100      0.15495300
H           3.91255100      1.51774200      1.11169200
H           4.75789400     -0.69356300     -0.87295200
H           6.35193700      1.37574000      0.81773500
H           6.79350400      0.88010800     -0.82549500
