20
b3lypvdz=-236.905167919619 
C          -1.01877500      1.22232400      0.20087000
C          -2.28711200      0.46245600     -0.23669200
C          -1.90693500     -0.88892500     -0.86371400
C          -1.24593700      2.55543600      0.92647800
C          -3.16004400      1.27491000     -1.20242800
C           0.05303100      3.14190100      1.49001600
H          -0.42891000      0.55983300      0.86298000
H          -0.38074200      1.39934200     -0.68755700
H          -2.88851100      0.25476700      0.66998800
H          -1.32859800     -1.51278600     -0.16150400
H          -2.80051500     -1.46014300     -1.16597900
H          -1.28593900     -0.74120900     -1.76533100
H          -1.97191600      2.41378500      1.74886800
H          -1.70521900      3.28572200      0.23715600
H          -4.02959200      0.68534800     -1.53882700
H          -3.54616600      2.19727100     -0.73990400
H          -2.58822900      1.56420600     -2.10294300
H           0.79495300      3.30193500      0.68854500
H           0.51042600      2.46581000      2.23318700
H          -0.12016900      4.11241700      1.98349100
