23
b3lypvdz=-276.188361710107 
C          -2.17925800      0.57852000     -0.48950000
C          -3.46432300      1.13336800     -1.11539100
C          -4.54185800      0.07932700     -1.41491900
C          -5.24220400     -0.51438600     -0.18340300
C          -6.31587500     -1.54397300     -0.55863000
C          -7.12222300     -2.11786600      0.61617200
C          -8.05966600     -1.11352900      1.29679400
H          -1.42469100      1.37357800     -0.36820000
H          -1.73366800     -0.20459300     -1.12772800
H          -2.35392000      0.13172200      0.50382500
H          -3.89392600      1.91217700     -0.45625600
H          -3.20103800      1.64870900     -2.05665900
H          -4.09746600     -0.73867000     -2.01514200
H          -5.31488300      0.53811300     -2.05960200
H          -5.69515400      0.31175900      0.39682000
H          -4.50556000     -0.99356000      0.48964100
H          -5.82861100     -2.37653400     -1.10014200
H          -7.01914000     -1.08494300     -1.28122300
H          -6.43035300     -2.54538800      1.36700500
H          -7.72377200     -2.96633400      0.24319000
H          -7.50929300     -0.29709200      1.79369000
H          -8.67988600     -1.60659600      2.06408300
H          -8.74503300     -0.64971000      0.56447400
