20
b3lypvdz=-236.902875858211 
C          -2.30187900      0.57722700     -0.30399800
C          -1.63913800     -0.75788900     -0.66685100
C          -3.42656200      1.02770100     -1.25311400
C          -4.55589800      0.01502000     -1.50929900
C          -5.31805600     -0.44256600     -0.25728400
C          -6.46980900     -1.39889600     -0.59164100
H          -1.52861300      1.36728600     -0.29359600
H          -2.68936100      0.52106200      0.73011300
H          -0.78037400     -0.95959300     -0.00568900
H          -2.33708800     -1.60571600     -0.56369700
H          -1.26628100     -0.75272300     -1.70637100
H          -3.86896700      1.95780400     -0.84952100
H          -2.97774000      1.30328400     -2.22613800
H          -4.15332800     -0.87197400     -2.03339600
H          -5.27555000      0.47639000     -2.21106900
H          -5.71484300      0.44157600      0.27688700
H          -4.62606700     -0.94385600      0.44340600
H          -6.99923300     -1.72860900      0.31789500
H          -6.09707300     -2.30009900     -1.10921100
H          -7.20874100     -0.91513000     -1.25452600
