23
b3lypvdz=-276.187141417147 
C          -2.31764500      0.59914800     -0.32111000
C          -1.70128700     -0.76820400     -0.64763600
C          -3.42753900      1.07164600     -1.28217400
C          -4.56244300      0.04349500     -1.49940300
C          -3.97016700      2.44350400     -0.84578500
C          -5.30651200     -0.44878400     -0.24805900
C          -6.43060200     -1.43139700     -0.60419900
H          -1.51386500      1.35880300     -0.32945100
H          -2.70855100      0.58522500      0.71368700
H          -0.84701000     -0.97971100      0.01621900
H          -2.42461900     -1.59049400     -0.51976700
H          -1.33170800     -0.80407100     -1.68745000
H          -2.95233600      1.21831100     -2.27229000
H          -4.15520200     -0.83614000     -2.03114500
H          -5.29863500      0.49209300     -2.19272400
H          -3.16685300      3.20030300     -0.84237100
H          -4.75803900      2.79769700     -1.53089300
H          -4.39846700      2.41183000      0.17116900
H          -5.73436700      0.40614800      0.30578000
H          -4.59966200     -0.94515700      0.44091700
H          -6.94610600     -1.80147100      0.29779800
H          -6.03370700     -2.30682300     -1.14789600
H          -7.18637700     -0.95244900     -1.25151600
