14
b3lypvdz=-158.333440027562 
C          -2.30894600      0.57384000     -0.31740200
C          -1.70912500     -0.79390200     -0.66857400
C          -4.58765200      0.09599800     -1.46042200
C          -3.41425400      1.06543600     -1.26787700
H          -1.49937800      1.32670200     -0.30620000
H          -2.70973200      0.53908700      0.71402800
H          -0.86050000     -1.03016700     -0.00575000
H          -2.44721000     -1.60555900     -0.55790700
H          -1.33596200     -0.81451000     -1.70812500
H          -5.03273200     -0.19625300     -0.49241200
H          -4.27737000     -0.82546300     -1.98004700
H          -5.38331600      0.56206500     -2.06563900
H          -3.80261200      2.02461900     -0.88002400
H          -2.96691100      1.29340700     -2.25414900
