20
b3lypvdz=-236.903745289683 
C          -0.96506200      1.33272000     -0.07069500
C          -2.35603000      0.78699000     -0.45444900
C          -0.14565000      0.18231700      0.55023000
C          -1.16542400      2.48033200      0.95579200
C          -0.26840800      1.85039400     -1.34465200
C           0.09560500      3.16864400      1.49326500
H          -2.27234500     -0.02335100     -1.19870000
H          -2.98998600      1.57777300     -0.89054100
H          -2.88072500      0.37890100      0.42619500
H          -0.05630500     -0.66124100     -0.15495700
H           0.87574300      0.49619500      0.82049900
H          -0.63055900     -0.19919700      1.46528600
H          -1.74021800      2.07321400      1.80848000
H          -1.81921600      3.24317200      0.49277900
H           0.73571400      2.25395200     -1.13624400
H          -0.15094200      1.03960700     -2.08356500
H          -0.85808200      2.65247300     -1.82100600
H           0.68736100      3.63897900      0.69035700
H           0.75632300      2.46816300      2.03078300
H          -0.17519400      3.96636300      2.20414500
