20
b3lypvdz=-236.902236892107 
C          -1.04975500      1.53801100     -0.22199800
C          -2.25699200      0.57280200     -0.30013300
C          -1.83355900     -0.84486500     -0.71387500
C          -3.40675200      1.07658500     -1.19676000
C          -0.39316900      1.91501500     -1.55782200
C          -3.97316800      2.45289500     -0.83169300
H          -0.28920500      1.07576700      0.43386200
H          -1.36219800      2.46148500      0.29662000
H          -2.66138500      0.50168800      0.72899200
H          -1.03838400     -1.23402900     -0.05691700
H          -2.68479600     -1.54454700     -0.66144000
H          -1.44840100     -0.87039000     -1.74822000
H          -4.22432800      0.33318700     -1.15236000
H          -3.06992000      1.08756700     -2.25030100
H           0.47505700      2.57344000     -1.38989500
H          -0.03027300      1.03220300     -2.11012300
H          -1.08725600      2.45936800     -2.21998200
H          -3.22583900      3.25526500     -0.94910700
H          -4.83028300      2.71015600     -1.47475500
H          -4.32559400      2.47789600      0.21450600
