19
b3lypvdz=-273.752885807649 
C          -0.98899600      1.31173600     -0.13944200
C          -2.41302100      0.76722600     -0.28538300
C          -0.01931300      0.30388000      0.50825900
C           1.37970100      0.83037700      0.64790400
C           2.49440400      0.23444900      0.18527300
C           3.83775500      0.78160800      0.32849000
C           4.96118900      0.18771500     -0.10818100
H          -1.00697200      2.23590500      0.46683500
H          -0.59433900      1.60699000     -1.12834500
H          -2.43484800     -0.13740600     -0.91732300
H          -3.08217800      1.51119100     -0.74753700
H          -2.84075700      0.49293500      0.69464400
H          -0.00840000     -0.63352100     -0.07476600
H          -0.41192200      0.04030700      1.51114300
H           1.48205800      1.79434700      1.16622600
H           2.41060200     -0.72957600     -0.33297800
H           3.91071200      1.75411400      0.83047100
H           5.93988000      0.65409100      0.02705800
H           4.93584700     -0.78446900     -0.61054600
