12
b3lypvdz=-194.234060172625 
O           6.71603500     -1.02059200      1.99084500
C           7.15589600     -0.65083400      0.68675200
C           7.11087000     -1.81045400     -0.30985400
C           5.68637300     -2.29072500     -0.62770800
H           5.76274600     -1.17790900      1.94267900
H           6.56919100      0.20954200      0.29871500
H           8.19476600     -0.30357800      0.81380800
H           7.69965900     -2.64624500      0.10896700
H           7.61319900     -1.49536000     -1.24386400
H           5.07310500     -1.47348000     -1.04895800
H           5.17703700     -2.66879400      0.27631000
H           5.69442100     -3.11337100     -1.36149100
