15
b3lypvdz=-196.393540226845 
C           3.79618000      0.75809900      0.46915000
C           4.82054800      0.17562100     -0.16139600
C           6.27319300      0.50168700      0.05959400
C           7.11404500     -0.66468600      0.62490500
C           7.26003900     -1.87238600     -0.30816800
H           2.76077200      0.46762700      0.26830800
H           3.95850400      1.55296000      1.20697400
H           4.60267800     -0.61486800     -0.89261200
H           6.34293600      1.36201300      0.74819400
H           6.72662500      0.82841100     -0.89776900
H           6.67087100     -0.99078100      1.58378500
H           8.11796900     -0.27225500      0.86846700
H           6.29110300     -2.35915500     -0.50984500
H           7.92298900     -2.63478400      0.13407000
H           7.69534900     -1.57970200     -1.28055900
