14
b3lypvdz=-158.333904001938 
C          -1.02364700      1.53833600     -0.19674700
C          -2.21192300      0.56490300     -0.28149000
C          -1.83261100     -0.86397400     -0.68996700
C          -0.41186900      1.91421400     -1.55430100
H          -0.24136100      1.09655400      0.44997600
H          -1.35691000      2.45950100      0.31501800
H          -2.95515600      0.96766200     -0.99665900
H          -2.72107700      0.53230100      0.69842600
H          -1.10857900     -1.30123700      0.01927000
H          -2.71786800     -1.52113100     -0.71153900
H          -1.36989300     -0.89701400     -1.69104000
H           0.41509100      2.63395300     -1.43563200
H          -0.00568100      1.03593900     -2.08417700
H          -1.16641500      2.38229100     -2.21133900
