20
b3lypvdz=-236.903843704374 
C          -1.07444100      1.50486600     -0.23163700
C          -2.29921800      0.59416200     -0.41501600
C          -3.44074600      1.12619800     -1.30643700
C          -0.33768500      1.85238900     -1.53099600
C          -4.55602400      0.07681700     -1.41822600
C          -4.00999700      2.46675900     -0.82045700
H          -0.37252600      0.99611500      0.45386300
H          -1.36872900      2.43504700      0.28724000
H          -1.95771900     -0.37215600     -0.83267400
H          -2.71883200      0.35910100      0.58211700
H          -3.03141000      1.28741800     -2.32202100
H           0.57369200      2.43803500     -1.32655000
H          -0.03258000      0.94263700     -2.07793200
H          -0.96420700      2.45099300     -2.21304500
H          -5.00021700     -0.13436300     -0.42864200
H          -4.17555100     -0.87634200     -1.82201800
H          -5.36887200      0.42145500     -2.07865200
H          -3.25319800      3.26788300     -0.82935700
H          -4.84373300      2.79440600     -1.46315200
H          -4.40150800      2.38448000      0.21009200
