23
b3lypvdz=-276.182998911128 
C          -0.96027400      1.50185200     -0.20197900
C          -2.23659400      0.60508300     -0.27438700
C          -1.85960900     -0.84370800     -0.62818400
C          -1.09408800      2.67242200      0.78621700
C          -3.35763900      1.08364600     -1.22259600
C          -0.46460200      1.99096900     -1.57260000
C          -3.96523300      2.46615000     -0.95596500
H          -0.16931800      0.84584300      0.20937900
H          -2.66187900      0.58454400      0.74831200
H          -1.10830400     -1.24674900      0.07048900
H          -2.74113000     -1.50536400     -0.59398500
H          -1.43233300     -0.91323300     -1.64464300
H          -0.11605000      3.15254000      0.95902000
H          -1.47147600      2.32419600      1.76291300
H          -1.78036400      3.45331500      0.42372900
H          -4.16972900      0.33508200     -1.16981600
H          -2.98753600      1.04225600     -2.26384800
H           0.50949300      2.49912500     -1.47495200
H          -0.33367600      1.16167800     -2.28713100
H          -1.16138100      2.71625000     -2.02538500
H          -3.25295100      3.28359600     -1.14981700
H          -4.83891300      2.63706900     -1.60593900
H          -4.30431600      2.56623900      0.08946900
