19
b3lypvdz=-273.758122655664 
C          -0.97571800      1.49994000     -0.13514500
C          -0.06670100      0.42867400      0.49024600
C           1.35133200      0.89212300      0.66820200
C           2.44553400      0.26435000      0.19843600
C           3.81342000      0.73086500      0.37972400
C           4.90677400      0.08430700     -0.06621900
C           6.32286400      0.54278600      0.11481400
H          -2.00763200      1.12691400     -0.24438900
H          -1.01224300      2.40862100      0.48947400
H          -0.61164800      1.79795700     -1.13246200
H          -0.08377900     -0.48698900     -0.12527200
H          -0.48409100      0.14559000      1.47672300
H           1.48380100      1.83186100      1.22302900
H           2.32062400     -0.67458000     -0.35672400
H           3.93875700      1.67843400      0.91988700
H           4.76846000     -0.86345200     -0.60352200
H           6.92198300     -0.20821600      0.66191600
H           6.37535800      1.49073300      0.67345500
H           6.82600500      0.68858400     -0.85857200
