14
b3lypvdz=-158.333891458838 
C          -6.39293900     -1.45282700     -0.65000100
C          -7.10389400     -2.15227500      0.51995500
C          -6.19674600     -3.05673900      1.36576400
C          -5.31151600     -0.45377800     -0.22013700
H          -5.94461300     -2.21861000     -1.31166100
H          -7.14930800     -0.92288400     -1.25804300
H          -7.56740100     -1.38730700      1.17191800
H          -7.93589200     -2.75787200      0.11670600
H          -5.40988000     -2.48251400      1.88301800
H          -6.77954600     -3.58583700      2.13857500
H          -5.70056600     -3.81947100      0.73989200
H          -4.88041300      0.06316800     -1.09381900
H          -5.72851000      0.31593100      0.45358100
H          -4.48117700     -0.95098600      0.30895100
