15
b3lypvdz=-233.523310293919 
O           6.67690500     -0.99625700      1.94976400
C           6.37940500      0.62507400      0.14324600
C           7.11644500     -0.62095700      0.64146800
C           5.67622100     -2.38453800     -0.60424700
C           7.07446800     -1.81877400     -0.32725600
H           5.71840600     -1.13250400      1.90453900
H           5.29976800      0.43304000      0.00955900
H           6.49228400      1.44287400      0.87221500
H           6.77697800      0.96750600     -0.82679700
H           8.17709100     -0.35193100      0.79135200
H           5.02620500     -1.66154000     -1.12454600
H           5.17239100     -2.68302500      0.33176300
H           5.73180800     -3.28600900     -1.23533200
H           7.70674200     -2.60879800      0.11299300
H           7.55638300     -1.52246100     -1.27671900
