23
b3lypvdz=-276.189644964055 
C          -1.03454300      1.36103700     -0.28275300
C          -2.30917700      0.51748800     -0.48893900
C          -0.04746800      0.60419100      0.61863700
C          -3.45295200      1.13545100     -1.31787300
C          -0.35903900      1.75597500     -1.60446600
C          -4.59820700      0.12320900     -1.47677900
C          -3.97698300      2.45168300     -0.72397400
H          -1.31870500      2.28901900      0.25051400
H          -2.01573800     -0.44400200     -0.95472100
H          -2.71309700      0.25553100      0.50929500
H           0.31352600     -0.31398100      0.11964300
H           0.83431000      1.22229400      0.85777600
H          -0.51504000      0.30085000      1.57068500
H          -3.06171000      1.35692300     -2.32940400
H           0.56928900      2.32240500     -1.41744600
H          -0.08716200      0.85739900     -2.18897000
H          -1.00605700      2.38389100     -2.23783900
H          -5.02333700     -0.15275900     -0.49425100
H          -4.25228000     -0.80531400     -1.96194600
H          -5.41811900      0.53706000     -2.08796300
H          -3.19615100      3.22919200     -0.68516200
H          -4.81140000      2.85122500     -1.32450200
H          -4.35366200      2.30063200      0.30493900
