15
b3lypvdz=-196.394312134173 
C          -0.95897400      1.52331500     -0.17613000
C          -0.11774400      0.43230300      0.51692000
C          -0.26716400     -0.92651500     -0.17318500
C           1.31147300      0.90171300      0.66683600
C           2.41974500      0.30344800      0.22040900
H          -2.02455900      1.23971000     -0.21012300
H          -0.88366700      2.48673100      0.35541400
H          -0.61362700      1.68572300     -1.21222800
H          -0.51955700      0.32637000      1.54599700
H          -1.32702600     -1.22955100     -0.19566000
H           0.29591400     -1.71314400      0.35400900
H           0.09588400     -0.89298300     -1.21513400
H           1.41795500      1.85758600      1.19808000
H           3.40263900      0.75250000      0.38916200
H           2.39821000     -0.64760300     -0.31846700
