23
b3lypvdz=-276.184341411179 
C          -0.88707600      1.28563400     -0.11959100
C          -2.25046900      0.57719700     -0.27222100
C          -2.18679300     -0.83342900     -0.86450700
C          -1.01028500      2.57275200      0.74193800
C          -0.24855800      1.58401500     -1.48729200
C           0.08723400      2.76347100      1.80329800
C           1.50590300      2.98078300      1.26622800
H          -0.22285900      0.58335400      0.42283400
H          -2.91859000      1.21053100     -0.88664400
H          -2.72576200      0.51748900      0.72322100
H          -1.53609900     -1.48917300     -0.26118500
H          -3.18724800     -1.29582300     -0.89177600
H          -1.79381400     -0.83941700     -1.89416000
H          -1.98067700      2.56321700      1.26938000
H          -1.03870800      3.45878300      0.07977000
H           0.72659300      2.08556700     -1.38098800
H          -0.08617500      0.66977400     -2.08015700
H          -0.89812100      2.25515200     -2.07715700
H           0.08281300      1.88649200      2.47885400
H          -0.18883800      3.62593500      2.43697200
H           1.88360100      2.10014700      0.72054000
H           1.54778600      3.84140800      0.57543000
H           2.21094100      3.18094200      2.08971300
