23
b3lypvdz=-276.187138711219 
C          -1.07898400      1.33474100     -0.14840200
C          -2.32270100      0.45971800     -0.35476500
C           0.06565700      0.58673200      0.54149500
C          -3.41361400      1.05379400     -1.26832900
C          -4.57446200      0.05813700     -1.50134800
C          -3.91724900      2.42713300     -0.79755400
C          -5.38224300     -0.34983100     -0.26086000
H          -1.34204500      2.22552800      0.44990500
H          -0.72849800      1.72009900     -1.12488800
H          -2.00530700     -0.50841700     -0.78714400
H          -2.75264900      0.21804500      0.63527700
H           0.39479300     -0.27988600     -0.05750600
H           0.94086500      1.23895300      0.69396400
H          -0.24151400      0.20118700      1.52942700
H          -2.94250300      1.20966400     -2.25904600
H          -4.16403400     -0.85136700     -1.97735800
H          -5.26334600      0.50266300     -2.24291000
H          -3.11317200      3.18048600     -0.82010800
H          -4.72623300      2.79148200     -1.45266600
H          -4.31405700      2.39517900      0.23220600
H          -6.19867000     -1.03644000     -0.53882800
H          -5.84275200      0.51879600      0.23938100
H          -4.76048300     -0.87139500      0.48545700
