18
b3lypvdz=-235.677865430601 
C          -0.95393600      1.51699500     -0.11001800
C          -0.09261400      0.41535500      0.56132700
C          -0.25118600     -0.92352300     -0.16558400
C          -1.13513900      2.80038200      0.70565000
C           1.34472300      0.86183600      0.71180500
C           2.42816000      0.29884900      0.16722500
H          -1.94853700      1.08416600     -0.32025000
H          -0.51063600      1.75852100     -1.09407400
H          -0.49302900      0.28655600      1.58874100
H          -1.30788800     -1.23698000     -0.16173900
H           0.33931700     -1.71876900      0.31612000
H           0.07363400     -0.85589300     -1.21820300
H          -0.18236900      3.32708800      0.87704400
H          -1.58144400      2.58832800      1.69339800
H          -1.80615100      3.50359700      0.18582000
H           1.48635000      1.75834000      1.32798000
H           3.42211200      0.72335900      0.33416200
H           2.37593300     -0.59930800     -0.45410300
