16
b3lypvdz=-234.458396261816 
C           3.70703700      0.74195000      0.32098800
C           4.81218900      0.08259200     -0.05265400
C           4.84279900     -1.08807800     -0.96802100
C           5.73382500     -2.25309800     -0.57047200
C           7.22595000     -1.90390900     -0.42163800
C           4.10352500     -1.11761200     -2.09088500
H           2.71667600      0.43402300     -0.02814500
H           3.76137300      1.60415000      0.99197600
H           5.77319500      0.40065500      0.37047000
H           5.36655700     -2.66217200      0.39035200
H           5.61194800     -3.05694800     -1.31582100
H           7.40566400     -1.18287400      0.39233800
H           7.81312700     -2.80747600     -0.18878300
H           7.63107900     -1.46599800     -1.35035500
H           4.10470300     -1.99066600     -2.75126500
H           3.49095400     -0.26324000     -2.39058700
