23
b3lypvdz=-276.188422760424 
C          -3.46044900      1.10798600     -1.24022900
C          -4.55176300      0.06552700     -1.53890900
C          -3.99543800      2.47796300     -0.80218000
C          -5.28839400     -0.47361000     -0.30205600
C          -6.37382000     -1.49786400     -0.66376200
C          -7.09091700     -2.14008400      0.53627300
C          -6.20305800     -3.04171400      1.40530600
H          -2.77697000      0.70999600     -0.46609300
H          -2.84588500      1.24557000     -2.14815300
H          -4.09032100     -0.78993500     -2.06633300
H          -5.28513300      0.50183300     -2.24412600
H          -3.17032000      3.19718200     -0.66791900
H          -4.68241400      2.89393800     -1.55930100
H          -4.54483700      2.42367700      0.15282200
H          -5.75527900      0.35698200      0.25968400
H          -4.54510000     -0.93321400      0.37531100
H          -5.92671300     -2.29878600     -1.28436300
H          -7.12761200     -0.99945200     -1.30224800
H          -7.53596800     -1.34636300      1.16571600
H          -7.93741700     -2.73975800      0.15531500
H          -5.41240300     -2.47130800      1.92099800
H          -6.80054400     -3.54946000      2.18132700
H          -5.71284400     -3.82250600      0.79732200
