21
b3lypvdz=-274.986926515045 
C          -1.07923300      1.41130700     -0.13826800
C          -2.31748200      0.50580000     -0.29354700
C          -0.02750900      0.49227000      0.49871400
C          -1.72380300     -0.88495800     -0.66607400
C          -0.23100800     -0.86445400     -0.21573300
C          -3.36914100      1.05813500     -1.26310800
C          -4.59628400      0.16435900     -1.47381600
H          -1.28534700      2.31684100      0.45658600
H          -0.73330400      1.74662700     -1.13481100
H          -2.78611500      0.42103400      0.70687100
H           1.00136200      0.87573700      0.40248700
H          -0.23977200      0.39166000      1.57880800
H          -2.28949200     -1.69959500     -0.18860600
H          -1.79245600     -1.05332800     -1.75500300
H           0.03266300     -1.71617000      0.43139100
H           0.42892500     -0.92661000     -1.09712300
H          -3.70378000      2.04402200     -0.89029200
H          -2.88438800      1.25195800     -2.23952000
H          -5.10076500     -0.06315100     -0.51827100
H          -4.32575800     -0.79616600     -1.94351600
H          -5.33431200      0.65648300     -2.12907000
