6
b3lypvdz=-78.533039736066 
C           1.36441900      0.97502100      0.66417500
C           2.43898100      0.28047900      0.28692500
H           0.35444600      0.56637900      0.55398400
H           1.45649800      1.97668900      1.09618900
H           3.44895400      0.68912100      0.39711600
H           2.34690200     -0.72118900     -0.14508900
