19
b3lypvdz=-273.751971752589 
C          -0.04742900      0.59032300      0.40107000
C          -1.83240900     -0.95307400     -0.56036000
C          -0.33713600     -0.72266600     -0.33306800
C           1.39931000      0.93101000      0.63175800
C           2.47601500      0.25980700      0.17925800
C           3.85085500      0.67385000      0.42871000
C           4.94100700      0.04311600     -0.03916500
H          -0.51799200      1.42946700     -0.15106600
H          -0.56703400      0.58794200      1.37934200
H          -2.27609100     -0.14678200     -1.16948700
H          -2.38441400     -0.98600700      0.39428300
H          -2.01810600     -1.90221600     -1.08851200
H           0.09051500     -1.56319300      0.24253100
H           0.18424600     -0.72372500     -1.30649600
H           1.57495100      1.83823900      1.22515100
H           2.34493700     -0.64949200     -0.41720900
H           3.97807700      1.57630000      1.03928200
H           5.94648500      0.40944000      0.17975100
H           4.85891400     -0.85913600     -0.65357200
