23
b3lypvdz=-276.187104368979 
C          -1.07343700      1.51750600     -0.16343300
C          -2.27094900      0.57481800     -0.32352400
C          -3.38332100      1.07676500     -1.26737500
C          -4.48423100      0.01277300     -1.48190500
C          -3.97418600      2.43172300     -0.84359400
C          -5.26619500     -0.44462600     -0.23909900
C          -6.41830400     -1.38889900     -0.59758200
H          -0.28454200      1.05443200      0.45212800
H          -1.35529900      2.46362200      0.32767200
H          -0.62521300      1.77198300     -1.14014700
H          -1.91121900     -0.39829000     -0.70690300
H          -2.69978300      0.36568900      0.67345700
H          -2.91196800      1.23179300     -2.25806600
H          -4.03178000     -0.87705700     -1.95953200
H          -5.20609200      0.41301200     -2.21882200
H          -3.22229700      3.23559800     -0.89189600
H          -4.80311100      2.72009100     -1.51125200
H          -4.37245700      2.40960800      0.18591600
H          -5.66926700      0.43103100      0.30154600
H          -4.58530400     -0.95237400      0.46706000
H          -6.95225200     -1.74451700      0.29899200
H          -6.05193200     -2.27674600     -1.14204300
H          -7.15536100     -0.88743400     -1.24939800
