20
b3lypvdz=-236.901871933296 
C          -1.09964600      1.53538500     -0.22530400
C          -2.25080800      0.50912700     -0.35388100
C          -1.74026500     -0.87802100     -0.77172400
C          -3.38713200      1.03978700     -1.25335800
C          -0.36426200      1.90146400     -1.52332100
C          -4.61599300      0.13194500     -1.37077000
H          -0.36526300      1.13698900      0.49864900
H          -1.50253900      2.45783400      0.23155500
H          -2.67575300      0.40013100      0.66360400
H          -0.90446600     -1.19462800     -0.12572300
H          -2.52848700     -1.64314500     -0.68618700
H          -1.37618800     -0.89100200     -1.81386100
H          -3.70696500      2.02047200     -0.85411600
H          -2.99342900      1.24288500     -2.26560000
H           0.47232200      2.58825400     -1.31467500
H           0.06041900      1.01597900     -2.02562600
H          -1.02535400      2.40860900     -2.24528400
H          -5.02441000     -0.13318000     -0.37967800
H          -4.38648500     -0.80957900     -1.89670100
H          -5.41949700      0.63209500     -1.93649700
