14
b3lypvdz=-158.333894018429 
C          -1.17125400      1.39714900     -0.09616400
C           0.05838700      2.71195800      1.75368100
C           1.49721600      2.58071900      1.24532000
C          -1.01057400      2.72624700      0.65013800
H          -1.97703600      1.44752600     -0.84702100
H          -1.41722000      0.57867600      0.60213500
H          -0.25059400      1.10665100     -0.63013000
H          -0.16399600      1.88755900      2.45755400
H          -0.02797100      3.64208600      2.34394600
H           1.66922000      1.62512900      0.72170400
H           1.74303400      3.38698000      0.53268100
H           2.22002600      2.63931800      2.07566400
H          -1.97850400      3.00413600      1.10611500
H          -0.77543400      3.52826500     -0.07372100
