17
b3lypvdz=-197.621495512843 
C          -0.97141500      1.41741400     -0.15318500
C          -2.32697300      0.70161400     -0.30639100
C           0.04153100      0.46097200      0.50366700
C          -1.14707200      2.66791900      0.72849800
C          -0.45557000      1.83356600     -1.54349000
H          -2.23265600     -0.20117300     -0.93336600
H          -3.07419000      1.36157800     -0.77955100
H          -2.72588900      0.38829300      0.67368300
H           0.19462800     -0.44052700     -0.11336800
H           1.02296600      0.94761000      0.63537800
H          -0.30596000      0.13101400      1.49755000
H          -0.18873900      3.19759800      0.86623700
H          -1.52997600      2.39963700      1.72834800
H          -1.86024300      3.37799900      0.27573600
H           0.51757700      2.34906600     -1.47227400
H          -0.32331700      0.95341900     -2.19559200
H          -1.16130200      2.51950200     -2.04248100
