23
b3lypvdz=-276.188423657685 
C          -1.01932200      1.17668300      0.17934000
C          -2.29665800      0.38577600     -0.14755400
C          -1.22677900      2.47508000      0.97000900
C          -3.32765400      1.13962400     -1.00217200
C           0.09602200      3.15577500      1.34094200
C          -4.45148700      0.24778600     -1.55499900
C          -5.37201800     -0.35393700     -0.48764000
H          -0.33950400      0.51977700      0.75358100
H          -0.48581500      1.41282400     -0.76187400
H          -2.00276300     -0.53402900     -0.68849800
H          -2.76633700      0.04570800      0.79376100
H          -1.80294100      2.25729900      1.88951100
H          -1.84597400      3.17700800      0.38383300
H          -3.77546000      1.96278200     -0.41447600
H          -2.80779000      1.61949800     -1.85245200
H           0.69230200      3.38569300      0.44070400
H           0.71256200      2.50712200      1.98735200
H          -0.07195000      4.10260400      1.87995400
H          -4.00062200     -0.56760500     -2.15191800
H          -5.06376800      0.84024500     -2.25889200
H          -6.16088200     -0.97180400     -0.94888000
H          -5.86987400      0.43565400      0.10325600
H          -4.82098800     -0.99796500      0.21821400
