19
b3lypvdz=-273.748039933934 
C          -1.21860200      2.82881000      0.95909100
C           1.40401600      1.03240200      0.40351700
C           0.08487400      2.75352400      1.76122200
C           1.33393400      2.45017200      0.91061100
C           2.51441200      0.29528800      0.19180800
C           3.89463300      0.71444500      0.40766900
C           4.96386800     -0.05116600      0.12715200
H          -1.44563500      1.88143200      0.44076900
H          -2.07258000      3.05645900      1.61784300
H          -1.16801200      3.61794000      0.18854200
H           0.44409500      0.55987600      0.16386700
H          -0.00978900      1.99405700      2.55896400
H           0.24249700      3.71756100      2.27623000
H           1.34228200      3.14452000      0.04608100
H           2.23654100      2.68819700      1.49706500
H           2.38659800     -0.72248500     -0.19532700
H           4.06154800      1.71480900      0.82068600
H           5.98079300      0.30696800      0.30602400
H           4.85232700     -1.05650900     -0.29191300
