14
b3lypvdz=-158.333967982105 
C          -5.27893300     -0.42140100     -0.23987400
C          -4.53342100      0.03493700     -1.50233200
C          -3.99533300      2.47114200     -0.83617300
C          -3.45098000      1.09899300     -1.25585500
H          -6.00631600     -1.21556100     -0.47676800
H          -5.83775900      0.40427400      0.23202500
H          -4.57714500     -0.82571200      0.51031100
H          -4.06135100     -0.84647200     -1.97411700
H          -5.26179600      0.42477900     -2.23834900
H          -3.17845800      3.20685000     -0.74715900
H          -4.71357200      2.85669800     -1.58027300
H          -4.51278800      2.43213300      0.13740000
H          -2.74508500      0.72913500     -0.48753000
H          -2.85906200      1.22280600     -2.18100600
