23
b3lypvdz=-276.188974838817 
C          -2.32081500      0.61366500     -0.31450600
C          -3.42632000      1.10578800     -1.26264000
C          -4.51670500      0.03903600     -1.51889300
C          -4.01735200      2.44548500     -0.79357700
C          -5.28479700     -0.47758600     -0.29068400
C          -6.37751400     -1.48986500     -0.66449100
C          -7.10414600     -2.07800800      0.55159500
H          -1.49393500      1.34244200     -0.26195100
H          -1.89706700     -0.34500200     -0.65985000
H          -2.69621100      0.46675100      0.71279600
H          -2.94712000      1.29639500     -2.24223900
H          -4.04866400     -0.82541100     -2.02693800
H          -5.24428900      0.45567800     -2.24055500
H          -3.23791500      3.22558300     -0.75691800
H          -4.80626100      2.79510900     -1.48046400
H          -4.45975800      2.37135000      0.21526000
H          -5.75145700      0.36609000      0.25080600
H          -4.58409200     -0.95638200      0.41770900
H          -5.92677400     -2.31145100     -1.25246700
H          -7.11323600     -1.00039700     -1.33044100
H          -7.59332500     -1.28730400      1.14715900
H          -6.40226200     -2.61110900      1.21666100
H          -7.88308600     -2.79555800      0.24452700
