17
b3lypvdz=-272.530654225543 
C           1.38379800      1.00367400      0.69298200
C           2.42342400      0.30100300      0.20726300
C           3.81670300      0.69880100      0.34692200
C           4.90708600      0.08181700     -0.17985800
C           6.30525100      0.54174300      0.16714200
C           4.84258000     -1.08535600     -1.08647800
C           4.02838300     -1.24012700     -2.14260100
H           0.35847700      0.64121700      0.58574300
H           1.52585700      1.96188300      1.20304700
H           2.22640500     -0.64578200     -0.30352100
H           3.99385200      1.57240300      0.98615100
H           6.89164700     -0.28260600      0.61387500
H           6.29541700      1.37844500      0.88136300
H           6.85682500      0.86149600     -0.73525500
H           5.58671400     -1.86893500     -0.88470300
H           4.06636300     -2.14222700     -2.75903300
H           3.31632100     -0.46414900     -2.43634000
