20
b3lypvdz=-236.905102283508 
C          -0.98578700      1.30733600     -0.13978000
C          -2.26284000      0.46968000     -0.34379000
C           0.07262600      0.49389000      0.61591600
C          -1.25150400      2.64593700      0.56355500
C          -3.38316000      1.15004900     -1.13921500
C          -4.54974900      0.21269700     -1.46167700
H          -0.57795900      1.53917900     -1.14450500
H          -1.98158200     -0.46903800     -0.85737500
H          -2.65312500      0.16089900      0.64682000
H           0.30898700     -0.44850600      0.09441500
H           1.01141800      1.06123600      0.72835800
H          -0.27901000      0.22948300      1.62934900
H          -0.31042500      3.19923600      0.71957600
H          -1.71838500      2.49024400      1.55318900
H          -1.92101400      3.29511800     -0.02184800
H          -3.76264800      2.02257800     -0.57903500
H          -2.96328600      1.55524700     -2.07942600
H          -5.01186200     -0.18558200     -0.54124400
H          -4.21878800     -0.65298200     -2.06120300
H          -5.33880800      0.72979900     -2.03198000
