20
b3lypvdz=-236.900900740809 
C          -1.04576900      1.56269700     -0.22631000
C          -2.28008300      0.64941700     -0.35813000
C          -1.12818200      2.60276900      0.89255600
C          -3.39067600      1.09894800     -1.33114800
C          -4.53274600      0.07475100     -1.31821800
C          -3.92770400      2.51150500     -1.07063800
H          -0.16497600      0.92684100     -0.03044900
H          -0.84140400      2.05940600     -1.19324500
H          -1.94590100     -0.34701400     -0.69668400
H          -2.72084300      0.48763500      0.64454300
H          -0.19737000      3.19015200      0.96014600
H          -1.28266000      2.10867200      1.86811800
H          -1.95588400      3.31371400      0.75296100
H          -2.95245300      1.09835400     -2.34826400
H          -5.00182500      0.02102500     -0.31977800
H          -4.16964700     -0.93614300     -1.56818200
H          -5.32353300      0.33738400     -2.03948200
H          -3.14487500      3.27869700     -1.18006700
H          -4.73365200      2.75618200     -1.78163700
H          -4.34831900      2.59940700     -0.05309200
