17
b3lypvdz=-197.619815082012 
C          -0.99334400      1.52619100     -0.17576100
C          -0.12806600      0.42270200      0.46347100
C          -0.23702500     -0.95523200     -0.20162600
C          -1.06456200      2.75767900      0.74165000
C          -0.49672300      1.92034300     -1.57589700
H          -2.02179900      1.12871400     -0.28241200
H           0.92915200      0.75138300      0.46044900
H          -0.41570000      0.32025700      1.52635500
H          -1.28183300     -1.31175900     -0.20189100
H           0.37064100     -1.70108300      0.33662900
H           0.11700000     -0.93901400     -1.24630000
H          -0.05994000      3.18366800      0.91416800
H          -1.49175900      2.49693700      1.72523200
H          -1.69363600      3.55009000      0.30200100
H           0.54143100      2.29786300     -1.53419200
H          -0.52105200      1.06918500     -2.27683400
H          -1.12318600      2.71927500     -2.00684100
