19
b3lypvdz=-273.755784590248 
C           1.38605900      1.09401000      0.49212000
C           1.29158700      2.39196600      1.24178900
C           2.49980100      0.42815500      0.12306300
C           3.88518000      0.80189200      0.38456400
C           4.94417400      0.11821900     -0.09092100
C           6.38846700      0.43791200      0.16842400
C           7.15240400     -0.74734600      0.78761800
H           0.42443800      0.64839400      0.20965800
H           0.76152500      2.25657500      2.20265500
H           0.69996600      3.12631500      0.66540300
H           2.27162100      2.84326300      1.45497600
H           2.36640000     -0.50598900     -0.43525700
H           4.06963800      1.68966900      1.00126300
H           4.75664800     -0.77073400     -0.71076100
H           6.46448500      1.32227000      0.82432700
H           6.88048400      0.71321600     -0.78530300
H           6.71007900     -1.04246500      1.75352700
H           7.12207200     -1.62942700      0.12480900
H           8.21147400     -0.49189600      0.95934600
