17
b3lypvdz=-197.619744030559 
C          -2.33599500      0.58498300     -0.32923000
C          -1.72382600     -0.78273900     -0.66209500
C          -3.42644100      1.07932600     -1.29974300
C          -4.57835300      0.07672200     -1.46866600
C          -3.95889700      2.44882700     -0.85224200
H          -1.52697800      1.33883200     -0.30463700
H          -2.75771800      0.55385400      0.69480700
H          -0.88158100     -1.00773300      0.01270200
H          -2.45652200     -1.59919700     -0.55325000
H          -1.33731600     -0.80931700     -1.69643800
H          -2.94990600      1.21595700     -2.29169600
H          -5.04061000     -0.16947900     -0.49490400
H          -4.24044500     -0.86519900     -1.92989000
H          -5.36853000      0.49434400     -2.11543000
H          -3.14460100      3.18952300     -0.77593500
H          -4.70479100      2.84034000     -1.56374900
H          -4.44629100      2.38085600      0.13739700
