10
b3lypvdz=-155.885037326704 
C           3.74537400      0.67277000      0.38996100
C           4.89381700     -0.00186600     -0.23545900
C           2.45199600      0.31908900      0.31401200
C           4.86690700     -1.08426400     -1.03002400
H           3.99773700      1.56419600      0.97553400
H           5.86885300      0.44734000     -0.01293100
H           1.68478900      0.90696700      0.82281300
H           2.11226100     -0.55683300     -0.24708500
H           5.79041600     -1.49903500     -1.44102600
H           3.93615000     -1.59016500     -1.30359500
