17
b3lypvdz=-309.678706192583 
O           6.61898500     -1.07976400      1.94461000
C           5.00811600      0.11824800     -0.44468500
C           6.33875900      0.54597900      0.13162900
C           4.72330900     -1.15176500     -0.77176400
C           7.13159200     -0.64958600      0.68136700
C           5.69946800     -2.29102200     -0.60980300
C           7.13055600     -1.80213100     -0.33608600
H           5.65726600     -1.16071200      1.85020600
H           4.24516500      0.89103300     -0.58953900
H           6.19865500      1.28537900      0.93912400
H           6.93102200      1.06372800     -0.64811400
H           3.73426900     -1.39546800     -1.17594500
H           8.16592600     -0.33480800      0.89555700
H           5.36052500     -2.93791600      0.22466200
H           5.67170900     -2.94685800     -1.49753800
H           7.75385700     -2.62866800      0.04019100
H           7.59052200     -1.44267000     -1.27397400
