16
b3lypvdz=-234.466788159106 
C          -0.06418300      0.46742300      0.50610900
C          -0.30636700     -0.87373600     -0.18746800
C           1.37153800      0.89552400      0.64178500
C           2.45647100      0.25361500      0.16863400
C           3.82451500      0.72251000      0.35458500
C           4.92073000      0.10693400     -0.11941000
H          -0.62517500      1.26761800     -0.01627900
H          -0.51058300      0.44377300      1.51957800
H          -1.38170200     -1.11297100     -0.20490400
H           0.21169200     -1.69479800      0.33457800
H           0.05312000     -0.86393000     -1.23002600
H           1.52768800      1.83201700      1.19384100
H           2.33812700     -0.68112700     -0.39044900
H           3.94173600      1.64975900      0.92909400
H           5.92036200      0.51034600      0.05817000
H           4.85033300     -0.82075700     -0.69653700
