23
b3lypvdz=-276.183888858665 
C          -0.97713400      1.41671100     -0.16078900
C          -2.31789600      0.63535000     -0.29036100
C           0.04279300      0.46430000      0.49531500
C          -1.12350400      2.65793200      0.74283200
C          -3.43062400      1.15640700     -1.21853300
C          -0.44458700      1.83801000     -1.54335400
C          -4.04545500      2.52633300     -0.90250100
H          -2.06746700     -0.38111500     -0.64679300
H          -2.73125600      0.50007000      0.72736600
H           0.24261000     -0.40873200     -0.14813400
H           1.00259900      0.97483500      0.68138200
H          -0.32996000      0.08621100      1.46260000
H          -0.13903900      3.11921400      0.93156300
H          -1.55483000      2.38394100      1.72119100
H          -1.76742200      3.42875000      0.29546900
H          -4.24080300      0.40451600     -1.19113500
H          -3.06398100      1.15436400     -2.26120000
H           0.54332200      2.32083300     -1.45161700
H          -0.32992700      0.96429700     -2.20771300
H          -1.11471500      2.55621900     -2.04242000
H          -3.34964300      3.35763200     -1.09893400
H          -4.93912000      2.70115400     -1.52359000
H          -4.35546100      2.59806500      0.15455600
