16
b3lypvdz=-234.467434015014 
C           1.36339300      0.93102800      0.70248300
C           2.44362100      0.31410900      0.19353800
C           3.82245900      0.73957300      0.40154000
C           4.89313900      0.11705400     -0.12611900
C           6.32783400      0.50601600      0.08906100
C           7.16041100     -0.63258700      0.70647800
H           0.35501400      0.55589700      0.51197200
H           1.45571000      1.83106700      1.31910400
H           2.30193200     -0.58434600     -0.41996700
H           3.97425100      1.62729700      1.02936100
H           4.72691100     -0.77177900     -0.75155000
H           6.38044500      1.40214800      0.73062300
H           6.77955400      0.78876700     -0.88174500
H           6.75841600     -0.92801300      1.68977300
H           7.15397500     -1.52821000      0.06190800
H           8.21043600     -0.32482200      0.84414100
