20
b3lypvdz=-236.904414978901 
C          -1.05952200      1.16156900      0.18139500
C          -2.34196600      0.41269300     -0.21459500
C          -1.26341500      2.47482600      0.94672900
C          -3.30924100      1.19042400     -1.11817100
C           0.06049400      3.10812500      1.38846900
C          -4.43046900      0.30649400     -1.67360600
H          -0.43759600      0.48675100      0.79897600
H          -0.46311400      1.36747600     -0.72845900
H          -2.04701800     -0.51637300     -0.73830200
H          -2.88171000      0.08649400      0.69491600
H          -1.90008500      2.28999200      1.83281600
H          -1.81969700      3.19319700      0.31873400
H          -3.75044300      2.03414300     -0.55754300
H          -2.74814800      1.64208600     -1.95808200
H           0.71702500      3.30037800      0.52201300
H           0.61196900      2.44607900      2.07861600
H          -0.09990100      4.06913600      1.90401600
H          -5.01003700     -0.16486100     -0.86015400
H          -4.02106900     -0.50702700     -2.29768700
H          -5.13515700      0.88359800     -2.29538100
