19
b3lypvdz=-273.752211827346 
C          -0.94284400      1.53119000     -0.14920600
C           0.00092700      0.44839500      0.41530300
C           1.42149700      0.89999200      0.59898200
C          -0.69707900      1.88599800     -1.61829200
C           2.52472700      0.26652900      0.15838100
C           3.88707100      0.72099600      0.41043400
C           5.00150400      0.07380200      0.02967200
H          -1.98306900      1.17865300     -0.02762200
H          -0.85577200      2.44119500      0.47339400
H          -0.03119100     -0.45343400     -0.22151100
H          -0.39310700      0.14186300      1.40426800
H           1.55501700      1.82952100      1.17201600
H           0.33016900      2.25323900     -1.78396900
H          -0.84391000      1.00552800     -2.26850500
H          -1.39171700      2.66962900     -1.96203100
H           2.41612900     -0.66574700     -0.41140700
H           3.98294600      1.66445700      0.96255500
H           5.99405000      0.46765600      0.26044600
H           4.95285200     -0.87416200     -0.51590900
