17
b3lypvdz=-197.619222023277 
C          -2.26166900      0.62957400     -0.33482500
C          -3.43319600      1.08540000     -1.21238100
C          -4.50098500      0.01402100     -1.48160300
C          -5.30610400     -0.43549200     -0.25357700
C          -6.41856200     -1.42814200     -0.60813600
H          -1.49802100      1.42140100     -0.25191100
H          -1.76850500     -0.26133300     -0.76269900
H          -2.58276900      0.37118800      0.68852300
H          -3.91744900      1.96733000     -0.75087800
H          -3.03368600      1.43450200     -2.18172100
H          -4.02453400     -0.87053300     -1.94920200
H          -5.20900000      0.40783300     -2.23483300
H          -5.74850900      0.45405600      0.23555000
H          -4.63321600     -0.89245800      0.49479400
H          -6.99277300     -1.73580500      0.28135800
H          -6.00435800     -2.34152200     -1.07027300
H          -7.12966400     -0.98862000     -1.33008800
