18
b3lypvdz=-235.680144700773 
C          -1.01630500      1.16254400     -0.26261500
C          -2.39845800      0.50667700     -0.33700600
C          -0.00083700      0.32971500      0.54002200
C          -3.40244600      1.26796800     -1.20446900
C           1.34213300      0.98796100      0.69090200
C           2.51308200      0.46966800      0.31098400
H          -1.11182700      2.16517400      0.19700900
H          -0.62418500      1.33420900     -1.28231700
H          -2.28818600     -0.52524400     -0.72063500
H          -2.80077200      0.40496000      0.68879900
H           0.12445800     -0.66202600      0.06934300
H          -0.42527600      0.14229100      1.54646200
H          -4.38733200      0.77292700     -1.20745300
H          -3.55135200      2.30013900     -0.84194600
H          -3.05697000      1.33231900     -2.25122400
H           1.33172200      1.98441800      1.15417900
H           3.45259300      1.00937500      0.45803500
H           2.57655800     -0.51967600     -0.15497100
