20
b3lypvdz=-236.900583418425 
C          -1.09860900      1.29414400      0.13026500
C          -2.42882400      0.60760700     -0.24351800
C          -1.17862000      2.50642200      1.06764700
C          -3.28258100      1.24174300     -1.35921500
C           0.20648000      3.00518200      1.50372200
C          -4.02876300      2.53661500     -1.01359600
H          -0.46443800      0.53362800      0.62513400
H          -0.55760600      1.57696800     -0.79320100
H          -2.17629500     -0.41268400     -0.58602700
H          -3.04907500      0.47474600      0.66286300
H          -1.76302300      2.22827200      1.96466700
H          -1.72479200      3.33415000      0.58464500
H          -4.03415700      0.49017800     -1.66321300
H          -2.64937200      1.40470000     -2.25135000
H           0.80240700      3.34299500      0.63808200
H           0.77730600      2.20727900      2.01090200
H           0.12655500      3.85562900      2.20084400
H          -3.34842400      3.38790100     -0.85716800
H          -4.71682300      2.81755000     -1.82893000
H          -4.63414600      2.41627600     -0.09835100
