20
b3lypvdz=-236.902141834404 
C          -2.32808300      0.58532300     -0.32801300
C          -1.71209300     -0.77922300     -0.66663900
C          -3.43725300      1.06703500     -1.28563000
C          -4.58162300      0.04713200     -1.49167000
C          -3.96815100      2.44181900     -0.84378300
C          -5.31783900     -0.40670300     -0.22199700
H          -1.52396700      1.34450600     -0.32801200
H          -2.71993500      0.56191900      0.70620500
H          -0.86216500     -0.99972100     -0.00018800
H          -2.43743000     -1.60191100     -0.55301000
H          -1.33595200     -0.80300400     -1.70444300
H          -2.96530800      1.21035700     -2.27780400
H          -4.18274000     -0.84319600     -2.00961200
H          -5.31481900      0.49177600     -2.18946000
H          -3.15775400      3.19080000     -0.83211800
H          -4.75013700      2.80772900     -1.52943500
H          -4.40055500      2.40766800      0.17128600
H          -6.11456200     -1.12539100     -0.47617500
H          -5.79356800      0.43695800      0.30531700
H          -4.64146600     -0.90917200      0.48978300
