21
b3lypvdz=-274.961626778995 
C          -0.96684600      1.53895600     -0.16599600
C          -0.08401300      0.43353300      0.50055900
C          -0.21983100     -0.92178300     -0.20127800
C          -1.10356800      2.78905000      0.71547600
C           1.34987100      0.87459600      0.69946800
C          -0.51937300      1.91356500     -1.58640100
C           2.45882800      0.25758100      0.27742400
H          -1.97752200      1.09450600     -0.24600900
H          -0.50339400      0.31127500      1.52021100
H          -1.28009100     -1.21651300     -0.26370000
H           0.31686300     -1.71012000      0.34968000
H           0.18472200     -0.90214500     -1.22640500
H          -0.14781500      3.32860300      0.82446000
H          -1.46246700      2.53226200      1.72656600
H          -1.82399600      3.49766500      0.27393700
H           1.47071300      1.80146000      1.27272900
H           0.50805500      2.31724700     -1.59231900
H          -0.54476700      1.04919800     -2.26905900
H          -1.18178600      2.68752400     -2.00798000
H           3.44648600      0.66987900      0.50253500
H           2.43453300     -0.67544000     -0.29170100
