16
b3lypvdz=-234.456977139093 
C           2.57611200      0.17838900      0.44584800
C           3.87118400      0.52039800      0.45236300
C           4.95717700     -0.02717400     -0.38107800
C           6.36013900      0.44400500     -0.03534800
C           4.76065400     -0.92998800     -1.36083900
C           7.04880400     -0.51674200      0.93344400
H           1.86215500      0.67018100      1.10637100
H           2.18814100     -0.59887100     -0.21174100
H           4.20909200      1.30276800      1.13893800
H           6.31522900      1.44590300      0.41623400
H           6.95440600      0.54007600     -0.95458300
H           5.59613500     -1.28900500     -1.96382700
H           3.77182600     -1.31719100     -1.60024000
H           6.48216200     -0.62618600      1.86985500
H           7.11365800     -1.51692100      0.48006000
H           8.06292400     -0.17784200      1.18984300
