16
b3lypvdz=-234.463899025771 
C           1.37846600      1.11486200      0.47946900
C           0.07616500      2.73403100      1.91953900
C           1.34999500      2.48727800      1.10251500
C           2.45874600      0.37019600      0.16944400
C           3.85309600      0.73750600      0.37771400
C           4.89464100     -0.02624800      0.00654100
H           0.39562100      0.69611400      0.22922700
H          -0.82034100      2.62537900      1.28548900
H          -0.01537200      2.01504900      2.75004500
H           0.06228100      3.74768400      2.35049700
H           1.41458300      3.24643700      0.29790200
H           2.24041400      2.65127100      1.73239400
H           2.29200800     -0.60723700     -0.29739800
H           4.05168200      1.70189600      0.85668500
H           5.92546200      0.29208800      0.17786800
H           4.74195500     -0.99390500     -0.48203000
