21
b3lypvdz=-274.968475767339 
C          -1.03130600      1.20145100     -0.24890300
C          -2.34511100      0.44410500     -0.46867900
C           0.00137900      0.38199200      0.54235700
C          -3.43748900      1.29336400     -1.11902900
C           1.36973200      1.01760500      0.68902500
C           1.41186600      2.46783800      1.10483100
C           2.49196800      0.31656600      0.47692200
H          -1.24380300      2.14283400      0.29076800
H          -0.60948700      1.50162900     -1.22669100
H          -2.14791500     -0.45269700     -1.08521700
H          -2.71009400      0.05962100      0.50289600
H           0.11783600     -0.61431300      0.08177600
H          -0.41480300      0.20367700      1.55441000
H          -4.36754400      0.71901000     -1.25955700
H          -3.68239300      2.17313400     -0.49922100
H          -3.12317200      1.67056700     -2.10771400
H           0.78460200      2.65481100      1.99488500
H           1.00789400      3.12010100      0.31018500
H           2.43903800      2.79610300      1.32246200
H           3.47947300      0.76587500      0.61543400
H           2.45952900     -0.73037300      0.16206000
