20
b3lypvdz=-236.902734895563 
C          -1.09194800      1.52420000     -0.17654400
C          -2.28361900      0.55679100     -0.29410100
C          -1.77116400     -0.84536500     -0.66883400
C          -3.36759000      1.07846600     -1.27629500
C          -4.52857600      0.08570800     -1.46218900
C          -3.92378900      2.45027800     -0.85658300
H          -0.31651900      1.10991200      0.48967900
H          -1.38676900      2.50111900      0.23734300
H          -0.62497400      1.69942500     -1.16245600
H          -2.75383600      0.48313200      0.70721100
H          -0.95377000     -1.15224200      0.00435600
H          -2.55854300     -1.61210600     -0.59484800
H          -1.37499800     -0.86133500     -1.70060600
H          -2.87884800      1.20677100     -2.26368900
H          -4.99737400     -0.16801500     -0.49377400
H          -4.20205200     -0.85240900     -1.93678500
H          -5.31209000      0.52089400     -2.10529800
H          -3.15107800      3.23490100     -0.86986000
H          -4.72563800      2.77120400     -1.54159300
H          -4.35332500      2.41187000      0.16126700
