19
b3lypvdz=-273.753761371093 
C          -0.06572300      0.51096100      0.39430000
C          -0.22534800     -0.87611000     -0.22565600
C           1.34297700      1.02781700      0.60861300
C           1.39354200      2.36550500      1.30283900
C           2.43723000      0.34162600      0.20357300
C           3.83272600      0.72088000      0.37841300
C           4.87447600      0.00231100     -0.07617400
H          -0.61920300      1.25414600     -0.21418800
H          -0.58149400      0.53108700      1.37443400
H          -1.29189900     -1.14377000     -0.29235500
H           0.27691800     -1.64915800      0.37793300
H           0.19502400     -0.92291200     -1.24356200
H           0.90165500      2.31162000      2.29104700
H           0.82933900      3.11944400      0.72453200
H           2.41114700      2.74850400      1.44841000
H           2.28644800     -0.61328600     -0.30898700
H           4.04363300      1.64704200      0.92191600
H           5.90396500      0.32751300      0.09043300
H           4.72678700     -0.93371900     -0.62442300
