13
b3lypvdz=-195.182490243565 
C           1.35952000      0.94199700      0.68742600
C           2.44416000      0.30830000      0.21011400
C           3.82044400      0.74681800      0.40403100
C           4.89681200      0.09897400     -0.07943600
C           6.32397800      0.51693300      0.11064300
H           0.35295500      0.55656300      0.50862900
H           1.44631700      1.86715800      1.26631700
H           2.30888300     -0.61505500     -0.36662700
H           3.96496600      1.66772700      0.98380700
H           4.73330800     -0.81896100     -0.66022900
H           6.91205800     -0.28192600      0.59879000
H           6.40502900      1.42517700      0.72815700
H           6.81677000      0.71439400     -0.85892200
