23
b3lypvdz=-276.185107369352 
C          -1.09927700      1.52832600     -0.17428100
C          -2.27661100      0.54255200     -0.28414500
C          -1.74591300     -0.84752600     -0.67636000
C          -3.37553200      1.05617800     -1.25551600
C          -4.52885900      0.04921600     -1.48812300
C          -3.93328400      2.43087800     -0.83674700
C          -5.31226600     -0.37544400     -0.23685800
H          -0.31042100      1.12179500      0.48078800
H          -1.40589700      2.49719300      0.24961700
H          -0.64601100      1.71802100     -1.16387600
H          -2.72620000      0.45739400      0.72368300
H          -0.92205500     -1.15048400     -0.00932500
H          -2.52073200     -1.62813000     -0.61107300
H          -1.35285500     -0.84578800     -1.70920600
H          -2.88608700      1.19521800     -2.24030600
H          -4.13508800     -0.85151600     -1.98978000
H          -5.23313200      0.50295900     -2.20941500
H          -3.16958200      3.22097300     -0.90876800
H          -4.76810300      2.72896100     -1.49223700
H          -4.30991500      2.42294000      0.20099600
H          -6.12384800     -1.07109600     -0.50794200
H          -5.77460600      0.48661900      0.27253600
H          -4.67082600     -0.89304000      0.49603800
