23
b3lypvdz=-276.186082554254 
C          -0.95733400      1.33603300     -0.04940000
C          -2.24977800      0.50371300     -0.29687300
C          -1.95072200     -0.86441800     -0.92985000
C          -1.23927100      2.58498200      0.81598500
C          -3.33285900      1.25181600     -1.09142000
C          -0.20583100      1.69682200     -1.34199000
C          -0.00313400      3.15736100      1.51836500
H          -0.29254400      0.68196900      0.54856300
H          -2.67071000      0.29670800      0.70654200
H          -1.18743900     -1.41455700     -0.35398600
H          -2.86094600     -1.48712800     -0.95465400
H          -1.58469900     -0.77420400     -1.96688500
H          -1.98670600      2.32033200      1.58534600
H          -1.70848500      3.37185100      0.19751700
H          -4.22999400      0.62138400     -1.20720600
H          -3.64618400      2.18033000     -0.58820600
H          -2.98918200      1.52047800     -2.10461700
H           0.69405000      2.29466600     -1.12788000
H           0.12747700      0.80162000     -1.89094300
H          -0.83656800      2.29345700     -2.02232200
H           0.77537200      3.46528000      0.80195300
H           0.44918900      2.41499600      2.19915600
H          -0.26190200      4.04341200      2.12100500
