16
b3lypvdz=-234.470173630916 
C          -0.02264000      0.43880800      0.46778000
C           1.35913700      1.01872000      0.63910400
C           1.39214500      2.39091000      1.26151700
C           2.45716200      0.33072800      0.24772000
C           3.84974100      0.74796700      0.36017700
C           4.89505600      0.03502300     -0.09715000
H          -0.66038200      1.10592200     -0.14182900
H          -0.00012300     -0.54897000     -0.01666600
H          -0.53096200      0.33360600      1.44466800
H           0.95904600      2.36997000      2.27888700
H           0.76693600      3.08968800      0.67696800
H           2.40090600      2.81949200      1.32638900
H           2.30234800     -0.65549400     -0.20683600
H           4.05527200      1.70293500      0.85484200
H           5.92025600      0.39673100      0.01641100
H           4.75680300     -0.92953500     -0.59698200
