19
b3lypvdz=-273.766088487875 
C          -1.00091700      1.51582400     -0.14892200
C          -0.05624300      0.43279500      0.39928800
C          -1.11139000      2.74019600      0.79989000
C           1.34003200      0.97586700      0.63973000
C           0.06748200      2.82693000      1.78902500
C           1.38583900      2.41995900      1.11903200
C           2.44565700      0.24695000      0.44581900
H          -1.99533000      1.07843900     -0.33532800
H          -0.62204600      1.84177000     -1.13322500
H          -0.01929900     -0.43792200     -0.27468300
H          -0.46512300      0.05719500      1.35739800
H          -2.05756800      2.71230400      1.36620100
H          -1.14692500      3.65964400      0.19033900
H          -0.11450900      2.16055700      2.65053200
H           0.14249000      3.84505400      2.20459900
H           1.56331000      3.08135600      0.24840800
H           2.24247600      2.57504100      1.79508200
H           3.43858000      0.65329500      0.66017300
H           2.39568300     -0.77795300      0.06764300
