14
b3lypvdz=-158.333953936676 
C          -0.76040400      1.51169000     -0.12223800
C           0.12953600      3.17050000      1.64578800
C          -0.31359400      0.18493200      0.50222000
C          -1.08739800      2.61280000      0.89912600
H          -1.65526900      1.32716900     -0.74351000
H           0.01926300      1.87996800     -0.81690600
H           0.85489200      3.61808600      0.94357800
H           0.66030900      2.39240400      2.22039300
H          -0.16777800      3.95673000      2.35922800
H          -0.16116500     -0.58592700     -0.27086100
H           0.63174400      0.28183100      1.06220200
H          -1.07494300     -0.19464500      1.20585500
H          -1.81974200      2.21753900      1.62893700
H          -1.59594900      3.44392300      0.37738800
