17
b3lypvdz=-197.618990492856 
C          -0.97567000      1.38809400     -0.13089300
C          -2.21554800      0.49834500     -0.31341300
C          -1.23680500      2.73578100      0.54913500
C          -3.36386500      1.14195800     -1.10204500
C          -4.49728700      0.16592100     -1.42762700
H          -0.22510500      0.82581200      0.45289800
H          -0.51309400      1.56744100     -1.12041800
H          -1.90428800     -0.43133900     -0.82593400
H          -2.59400500      0.18060600      0.67795500
H          -0.29649600      3.29135500      0.69875300
H          -1.71145200      2.60534100      1.53772800
H          -1.90137900      3.37714600     -0.05195900
H          -3.77169000      1.99596900     -0.53262500
H          -2.96256800      1.57013900     -2.04055300
H          -4.93715400     -0.26164600     -0.50926300
H          -4.13907700     -0.67875500     -2.04132800
H          -5.31001600      0.66053200     -1.98481300
