20
b3lypvdz=-236.903784682914 
C          -1.04354900      1.35006000     -0.27510800
C          -2.33097900      0.52052000     -0.46057100
C          -0.04321200      0.57654700      0.59495800
C          -3.47053300      1.16754500     -1.26561000
C          -0.39471000      1.75142500     -1.60777300
C          -3.98119800      2.50526300     -0.72022800
H          -1.30954700      2.27652200      0.26944900
H          -2.05944500     -0.43896500     -0.94183300
H          -2.71452200      0.25341400      0.54307100
H           0.30083100     -0.33688600      0.07632200
H           0.84818100      1.18380600      0.82363400
H          -0.49339400      0.26239100      1.55135400
H          -4.31197900      0.45162900     -1.29519500
H          -3.15187300      1.30055300     -2.31571000
H           0.52861400      2.33054500     -1.43797500
H          -0.12045700      0.85657800     -2.19584400
H          -1.06097500      2.36949500     -2.23061900
H          -3.20317500      3.28668100     -0.74939100
H          -4.83527700      2.87414500     -1.31115300
H          -4.32030000      2.41173400      0.32692100
