17
b3lypvdz=-197.619208024561 
C          -1.06121000      1.19208700      0.12851400
C          -2.35096900      0.50730600     -0.35413500
C          -1.25979600      2.48462100      0.93103500
C          -3.21969700      1.36167300     -1.28375400
C           0.05560200      3.04521000      1.48132700
H          -0.49262200      0.47415100      0.74946000
H          -0.41573800      1.40692600     -0.74518800
H          -2.06842100     -0.42078400     -0.88363000
H          -2.95090000      0.18593600      0.51756900
H          -1.95957700      2.29393000      1.76679400
H          -1.74486400      3.24877000      0.29786600
H          -4.07352900      0.78249600     -1.67318700
H          -3.63096300      2.24476000     -0.76723700
H          -2.64209100      1.72523400     -2.15218000
H           0.77142100      3.24740300      0.66580800
H           0.53745600      2.33365800      2.17441400
H          -0.10050100      3.98992500      2.02772600
