23
b3lypvdz=-276.189877150569 
C          -1.05897500      1.31874300     -0.15128500
C          -2.19791700      0.31736900     -0.38103100
C           0.14423600      0.73712100      0.59562300
C          -3.35631600      0.90653600     -1.19562200
C          -4.52077800     -0.04976000     -1.49133500
C          -5.36832200     -0.44398500     -0.27241600
C          -6.60165000     -1.27053100     -0.64639500
H          -1.45105300      2.18997200      0.40638400
H          -0.72593900      1.71824300     -1.12825300
H          -1.80102300     -0.57487500     -0.90322600
H          -2.56564600     -0.04578500      0.59714000
H           0.57891300     -0.11918400      0.05159600
H           0.93969500      1.49012200      0.72062400
H          -0.13758500      0.37745200      1.60052500
H          -3.75162900      1.79977400     -0.67404900
H          -2.94869500      1.27655800     -2.15453600
H          -4.13626000     -0.96331000     -1.98565900
H          -5.18529300      0.43348700     -2.23182200
H          -5.69072600      0.47419000      0.25617500
H          -4.75103900     -1.00713300      0.45086700
H          -7.20841700     -1.52425800      0.23818300
H          -6.31676900     -2.21662700     -1.13891200
H          -7.25061400     -0.71922100     -1.34927500
