17
b3lypvdz=-197.619228442574 
C          -1.08953000      1.51842600     -0.24088300
C          -2.26455800      0.54469700     -0.42301100
C          -3.44730600      1.10551800     -1.22448000
C          -0.33270000      1.84557700     -1.53409100
C          -4.59037500      0.10268200     -1.39941800
H          -0.38064500      1.08556000      0.48743400
H          -1.45992200      2.45394500      0.21910500
H          -1.89575000     -0.37707700     -0.91315800
H          -2.63080800      0.23020400      0.57190300
H          -3.82814100      2.01260000     -0.71804800
H          -3.10047100      1.43962800     -2.21834200
H           0.52310800      2.51219100     -1.33924200
H           0.06283900      0.92954900     -2.00797100
H          -0.97567500      2.34877900     -2.27496800
H          -4.99514700     -0.22077000     -0.42451300
H          -4.25133100     -0.80415200     -1.92961600
H          -5.42348900      0.53314200     -1.97910000
