9
b3lypvdz=-117.824413215803 
C           5.69110000     -2.26849100     -0.60401000
C           4.05131600     -1.15782900     -2.16356700
C           4.81418400     -1.13892300     -1.06589100
H           6.74574300     -1.94195000     -0.53713600
H           5.39593100     -2.61136200      0.40445200
H           5.63803300     -3.13129900     -1.28721400
H           4.01755100     -2.03276200     -2.82242700
H           3.43735000     -0.29674100     -2.44357300
H           4.81629200     -0.23804300     -0.43723500
