21
b3lypvdz=-274.96723643966 
C          -0.23519400      0.62418700      0.06947600
C          -1.73966000     -1.12762700     -0.98504300
C          -0.37036200     -0.83743500     -0.36388600
C           1.10549900      1.08069200      0.60688200
C           0.61481500      2.87216400      2.36221900
C           1.19449800      2.55226500      0.97192800
C           2.15461000      0.26588200      0.78819800
H          -0.50881300      1.27891800     -0.78274400
H          -1.00699300      0.84837800      0.83276600
H          -1.92468400     -0.48304200     -1.86120100
H          -2.55267500     -0.93863800     -0.26268500
H          -1.82359900     -2.17373600     -1.32174100
H          -0.21057000     -1.50097900      0.50438800
H           0.42913500     -1.08357400     -1.08528500
H          -0.46404600      2.64966400      2.42546300
H           1.11805500      2.27598200      3.13975600
H           0.75297800      3.93827500      2.60935700
H           0.67002500      3.15704300      0.21065400
H           2.25017100      2.87029700      0.94137300
H           3.10010600      0.65472800      1.17798700
H           2.11790500     -0.80194600      0.56323900
