19
b3lypvdz=-273.760897764498 
C          -1.00628700      1.44190600     -0.14999300
C          -2.28987100      0.61721200     -0.33965000
C          -0.05343500      0.44672500      0.55127800
C          -1.79185900     -0.81445700     -0.67762500
C          -0.31053100     -0.88299000     -0.19102300
C           1.36696700      0.93151900      0.66610900
C           2.47347200      0.30646300      0.24974400
H          -1.16956700      2.36490700      0.43129000
H          -0.58252600      1.73356000     -1.12824200
H          -2.95751600      1.02995700     -1.11228500
H          -2.85590800      0.60761000      0.60799400
H          -0.43289500      0.33061200      1.58844600
H          -2.42111900     -1.58098700     -0.19915000
H          -1.84476500     -0.99725600     -1.76351800
H          -0.11911500     -1.75270700      0.45664400
H           0.36486500     -0.97480900     -1.05816100
H           1.47896000      1.90774800      1.15648200
H           3.45871900      0.76069000      0.39127100
H           2.44471200     -0.67080400     -0.24021300
