12
b3lypvdz=-157.112541879855 
C           5.70436000     -2.34085300     -0.75092000
C           5.02849200      0.09595700     -0.39381300
C           6.27263900      0.61525400      0.26927000
C           4.78962100     -1.15174000     -0.82533700
H           6.00016400     -2.68121000     -1.76023900
H           6.62395700     -2.14047500     -0.18191000
H           5.19392100     -3.19631900     -0.27379700
H           4.22850100      0.83434000     -0.53114900
H           6.06553800      0.95054700      1.30243400
H           6.66191300      1.49845400     -0.26668400
H           7.07801200     -0.13321800      0.31027500
H           3.81818000     -1.34113900     -1.29913000
