20
b3lypvdz=-236.904585911881 
C          -3.45576300      1.07608700     -1.17431600
C          -4.57586100      0.10573300     -1.55857800
C          -5.25567200     -0.52861500     -0.33891600
C          -6.36026400     -1.52840800     -0.69563200
C          -7.09203200     -2.13550100      0.51181500
C          -6.20960300     -2.97964100      1.43991600
H          -2.66696700      0.56234600     -0.59689000
H          -3.84077100      1.89713800     -0.54437300
H          -2.98049200      1.52852500     -2.06012500
H          -4.16964500     -0.69437300     -2.20599600
H          -5.33420500      0.63311200     -2.16770400
H          -5.68097400      0.27273700      0.29732900
H          -4.48394100     -1.02743500      0.27679200
H          -5.92656700     -2.34481100     -1.30626400
H          -7.10287600     -1.02571500     -1.34380800
H          -7.56333900     -1.32270700      1.09678700
H          -7.92315900     -2.76100100      0.13967900
H          -5.44151000     -2.37146500      1.94646700
H          -6.81190900     -3.46659800      2.22483200
H          -5.68655000     -3.77520800      0.88008500
