20
b3lypvdz=-236.900802831405 
C          -1.08264600      1.28925400     -0.12708100
C          -2.52868300      0.85957300     -0.42689000
C          -1.05873800      2.52463500      0.80746400
C          -0.33059800      1.53443300     -1.44591400
C           0.13243100      2.63918900      1.77729100
C           1.51651900      2.87368100      1.16004100
H          -0.58777800      0.45265800      0.40424400
H          -2.55751300     -0.01648500     -1.09736000
H          -3.08416200      1.67406600     -0.92603600
H          -3.07565100      0.59675500      0.49402400
H          -1.97332800      2.51209500      1.42711200
H          -1.12694000      3.44241800      0.19096700
H           0.70881600      1.86025000     -1.28614200
H          -0.30656900      0.62281100     -2.06718300
H          -0.83592900      2.32189600     -2.03319000
H           0.16813200      1.72485800      2.40070200
H          -0.08422100      3.46528800      2.47870300
H           1.86668100      2.00593700      0.57767100
H           1.51898600      3.75034800      0.48852500
H           2.26499100      3.05614100      1.94905100
