19
b3lypvdz=-273.751704271961 
C           1.34455500      0.96731900      0.81074200
C           2.38450500      0.37684800      0.19807400
C           3.78209800      0.74379400      0.38582700
C           4.82220900      0.13086000     -0.21098400
C           6.26668100      0.48101200      0.00009800
C           7.11011400     -0.64601700      0.64051900
C           7.30635300     -1.88502600     -0.23807900
H           0.31796600      0.63971900      0.63260900
H           1.49235900      1.79778800      1.50919500
H           2.19403000     -0.45142100     -0.49637400
H           3.97832600      1.58211000      1.06795300
H           4.60730700     -0.70235000     -0.89372600
H           6.32719900      1.37920400      0.63801400
H           6.72869200      0.75301600     -0.96947500
H           6.64335000     -0.94059700      1.59775200
H           8.09849200     -0.22447100      0.89666800
H           6.35302200     -2.39420600     -0.45622200
H           7.96254100     -2.61916200      0.25784200
H           7.77370100     -1.62402100     -1.20403300
