21
b3lypvdz=-274.98728968841 
C          -0.90107900      1.34874300      0.09479700
C          -2.19370900      0.67858800     -0.41839700
C          -0.16617400      0.16625800      0.75595300
C          -1.78184400     -0.75122800     -0.85956000
C          -0.38057200     -1.00059500     -0.22546500
C          -1.14016700      2.56374200      0.99614500
C           0.14008900      3.22816300      1.51752000
H          -0.30196300      1.67376100     -0.78031300
H          -2.68259400      1.25283800     -1.22199000
H          -2.91574500      0.62434600      0.41697000
H           0.89879200      0.36661500      0.95352700
H          -0.64319600     -0.05789200      1.72926200
H          -2.51921800     -1.49931700     -0.52712700
H          -1.73181400     -0.83181300     -1.95812200
H          -0.30496700     -1.98133800      0.27007700
H           0.39750600     -0.97844900     -1.00794900
H          -1.76718400      2.24900700      1.85265400
H          -1.73981400      3.30888200      0.44084800
H           0.78134400      3.57279600      0.68760300
H           0.73711700      2.53185600      2.13061200
H          -0.09000800      4.10403700      2.14545500
