15
b3lypvdz=-196.394885216848 
C          -0.98924200      1.29701300     -0.16891500
C          -2.39548500      0.70928100     -0.31557300
C          -0.00406900      0.34504400      0.53452200
C           1.37184800      0.92878400      0.70132800
C           2.50961200      0.38669700      0.25861400
H          -1.04245000      2.24507700      0.39734500
H          -0.58446400      1.56231300     -1.16236600
H          -2.38236700     -0.22564400     -0.90211100
H          -3.07367200      1.41181000     -0.82661100
H          -2.83603600      0.47286500      0.66867900
H           0.06123500     -0.60660100     -0.02202700
H          -0.41435200      0.09346300      1.53291300
H           1.41748500      1.89292500      1.22690100
H           3.47427000      0.87665700      0.41760200
H           2.51998600     -0.57228200     -0.27059800
