20
b3lypvdz=-236.903690228782 
C          -4.55653600      0.09832200     -1.46310500
C          -5.27356500     -0.48679700     -0.23907800
C          -6.37178300     -1.48502800     -0.63114400
C          -7.12492200     -2.17192800      0.53012400
C          -7.89832300     -1.17428600      1.40653000
C          -6.21007600     -3.05998400      1.38918600
H          -3.77431700      0.81558500     -1.16458300
H          -4.07478800     -0.69578900     -2.06019500
H          -5.26374800      0.62970300     -2.12414300
H          -5.71041700      0.33944300      0.35021600
H          -4.52825200     -0.97947900      0.41134400
H          -5.92388400     -2.27049200     -1.27039300
H          -7.11225800     -0.96129700     -1.26667800
H          -7.87394100     -2.83760000      0.05887400
H          -7.21775700     -0.51753000      1.97671800
H          -8.53199100     -1.70621400      2.13692900
H          -8.55766800     -0.53090200      0.79774500
H          -5.48446800     -2.46051100      1.96643500
H          -6.80281300     -3.64548100      2.11335100
H          -5.64149400     -3.77363500      0.76786600
