19
b3lypvdz=-273.754869879253 
C           1.38025900      1.15746000      0.45791100
C           0.03874000      2.68543800      1.95756600
C           1.30514300      2.51418900      1.10938100
C           2.48129400      0.44584500      0.14287000
C           3.87019300      0.82433400      0.36120600
C           4.91380700      0.05273100     -0.00137400
C           6.35848200      0.39234700      0.18814400
H           0.41177800      0.71654800      0.19037100
H          -0.86461100      2.53892100      1.34067800
H           0.00080100      1.95199700      2.77994200
H          -0.01903600      3.69132800      2.40304600
H           1.31547600      3.29302800      0.32054300
H           2.20070700      2.70553100      1.72423100
H           2.33348400     -0.52622100     -0.34145200
H           4.06891400      1.79166800      0.83694600
H           4.69865500     -0.91088200     -0.48144300
H           6.87523100     -0.36318300      0.80683900
H           6.48971300      1.37262900      0.67305600
H           6.89386800      0.41099100     -0.77845900
