14
b3lypvdz=-158.333924619913 
C          -1.16896400      1.52651100     -0.20051800
C           0.08618000      2.93305000      1.56739900
C          -1.23686100      2.65107800      0.84562300
C          -0.27865700      1.82710800     -1.40984500
H          -2.19302000      1.31628000     -0.56024600
H          -0.82227500      0.59677100      0.28959100
H           0.87156600      3.27610700      0.87427200
H           0.46362100      2.02731400      2.07513100
H          -0.03502200      3.71423400      2.33591800
H          -2.00063000      2.38116900      1.59697700
H          -1.60271100      3.57715900      0.36248400
H           0.77480800      1.98256900     -1.12206200
H          -0.30433800      0.99787100     -2.13710000
H          -0.61689600      2.73748100     -1.93602300
