21
b3lypvdz=-274.985843032553 
C          -1.00058800      1.43734300     -0.20993300
C          -2.29436200      0.58265700     -0.31807100
C          -0.03814100      0.45096200      0.48342300
C          -1.79298400     -0.85133500     -0.65523100
C          -0.30304900     -0.90772700     -0.20487200
C          -3.38655200      1.10580300     -1.25399200
C          -0.45458200      1.93064600     -1.55923900
H          -1.17892300      2.32086700      0.42894400
H          -2.72638400      0.54862700      0.69964300
H           1.01797800      0.76403800      0.42536900
H          -0.30170700      0.38371900      1.55401400
H          -2.40575500     -1.60768500     -0.13983100
H          -1.88377500     -1.05791500     -1.73566700
H          -0.09397500     -1.75541700      0.46721000
H           0.35737900     -1.03066900     -1.07876700
H          -4.27983900      0.46016500     -1.20908700
H          -3.70092000      2.12623300     -0.97485800
H          -3.04894000      1.12966500     -2.30423400
H           0.52244800      2.42471000     -1.42144400
H          -0.31199300      1.10879800     -2.28095800
H          -1.13053500      2.66721400     -2.02361800
