20
b3lypvdz=-236.903818140212 
C          -1.13203700      1.52457700     -0.16107600
C          -2.24829100      0.47692000     -0.28713200
C          -1.67096300     -0.88184700     -0.70757800
C          -3.34654800      0.98843500     -1.24205800
C          -4.54734200      0.05929600     -1.48343500
C          -5.32934000     -0.30878100     -0.21595300
H          -0.36429200      1.21076600      0.56548300
H          -1.53002000      2.49846600      0.17044100
H          -0.62814300      1.68180000     -1.13192600
H          -2.69983200      0.35361800      0.71584700
H          -0.85099100     -1.18205900     -0.03440300
H          -2.42799300     -1.68270000     -0.68147900
H          -1.25950400     -0.84028300     -1.73263500
H          -3.72361700      1.95046300     -0.84505900
H          -2.87866200      1.22744000     -2.21623400
H          -4.21303000     -0.86311900     -1.99205200
H          -5.22950100      0.55992200     -2.19412900
H          -6.21278000     -0.92230100     -0.45763500
H          -5.68349500      0.59334300      0.31393100
H          -4.71381800     -0.88685900      0.49338200
