21
b3lypvdz=-274.986816285677 
C          -0.95126000      1.46764700     -0.16770000
C          -2.24719100      0.63138300     -0.31475200
C           0.00638900      0.43558300      0.47375800
C          -1.79850400     -0.81473300     -0.65330900
C          -0.30486700     -0.90987700     -0.21652000
C          -1.15653400      2.69951300      0.72340900
C          -0.42691300      1.91045000     -1.54771300
H          -2.93585600      1.05227100     -1.06633100
H          -2.78498300      0.63972300      0.64957200
H           1.06623600      0.72939500      0.38486500
H          -0.22318500      0.36494100      1.55286600
H          -2.42688600     -1.55361900     -0.13284700
H          -1.90330600     -1.02108300     -1.73065500
H          -0.11321400     -1.76375200      0.45248500
H           0.34464800     -1.05254800     -1.09542700
H          -0.20789800      3.23991300      0.88527300
H          -1.55277500      2.41196400      1.71271400
H          -1.87004500      3.40875000      0.26948600
H           0.54673700      2.42164700     -1.45412000
H          -0.29173800      1.05993400     -2.23557400
H          -1.12865300      2.61509900     -2.02527600
