14
b3lypvdz=-158.335268316617 
C          -6.37792000     -1.44616500     -0.58977500
C          -4.53478300      0.05806900     -1.53616700
C          -3.43836600      1.08481500     -1.22943800
C          -5.27626200     -0.42528200     -0.28206300
H          -6.88847800     -1.77796000      0.32977000
H          -5.96207100     -2.34126000     -1.08427500
H          -7.14139200     -1.01697900     -1.26199500
H          -4.08897500     -0.81226000     -2.05415700
H          -5.26405000      0.49895600     -2.24164800
H          -2.67477200      0.66151000     -0.55363300
H          -3.85942700      1.97993200     -0.73940200
H          -2.92682100      1.41534800     -2.14889900
H          -5.71715800      0.44558000      0.23929100
H          -4.54772500     -0.87150400      0.42079200
