20
b3lypvdz=-236.904617044028 
C          -3.45348500      1.07388900     -1.18385100
C          -4.55487900      0.06834800     -1.54127200
C          -5.28473900     -0.48158100     -0.30741400
C          -6.38252200     -1.49662300     -0.65231100
C          -7.08287100     -2.12515900      0.56393600
C          -7.89274500     -1.13844500      1.41651100
H          -2.68378700      0.60799300     -0.54354200
H          -3.86726900      1.93717100     -0.63382000
H          -2.95074400      1.46072200     -2.08606200
H          -4.11586400     -0.77147800     -2.11202900
H          -5.28963700      0.55025100     -2.21338600
H          -5.71874600      0.36630500      0.25420700
H          -4.54850600     -0.95978500      0.36796200
H          -5.93692800     -2.30637600     -1.26029200
H          -7.14156900     -1.00962900     -1.29531900
H          -6.32850800     -2.62616000      1.20052000
H          -7.75961200     -2.92196600      0.20598400
H          -7.24855400     -0.38716400      1.90383600
H          -8.44204300     -1.66709300      2.21383500
H          -8.63429200     -0.59741900      0.80200700
