17
b3lypvdz=-197.615162025549 
C          -1.16122300      1.53267900     -0.20075200
C          -1.06936900      2.75613300      0.73950100
C          -0.45465000      1.70909800     -1.55092600
C           0.06102500      2.71484200      1.78210300
C           1.48611300      2.60808400      1.23188300
H          -2.22375900      1.30597800     -0.39917900
H          -0.76103200      0.64105900      0.31785100
H          -2.01862100      2.85785900      1.29451800
H          -0.98070200      3.67394400      0.12748600
H           0.62254400      1.91541800     -1.43806300
H          -0.56068000      0.80798600     -2.17886000
H          -0.89193400      2.55380500     -2.11104500
H          -0.12426800      1.86419400      2.46550100
H          -0.01406000      3.62151000      2.41010200
H           1.64690100      1.66476400      0.68381600
H           1.71952500      3.43568600      0.54005900
H           2.22268800      2.64106100      2.05200400
