18
b3lypvdz=-235.67968160288 
C          -0.97834900      1.38023100     -0.08688000
C          -2.33392700      0.69476000     -0.30781100
C           0.00718200      0.40138000      0.59944700
C          -1.15259200      2.69298500      0.68907600
C           1.41698300      0.90403200      0.74383400
C           2.49439300      0.34400500      0.18585900
H          -0.55236600      1.63178600     -1.07746700
H          -2.23201200     -0.22612600     -0.90553900
H          -3.03759300      1.36140400     -0.83372000
H          -2.79471200      0.41495000      0.65678900
H           0.02370500     -0.54322900      0.02898200
H          -0.39745200      0.15404100      1.60194400
H          -0.20362800      3.24205900      0.79535800
H          -1.55335800      2.50678100      1.70236400
H          -1.86160400      3.36011500      0.17083800
H           1.55391200      1.80561900      1.35479900
H           3.49466400      0.76219700      0.32977500
H           2.41625300     -0.55999000     -0.42854800
