18
b3lypvdz=-235.702546038658 
C          -1.03938000      1.43230600     -0.15843000
C          -2.31308800      0.57750800     -0.29360800
C          -0.03528000      0.47065800      0.49677600
C          -1.78447700     -0.83897300     -0.65834200
C          -0.28944800     -0.87607300     -0.21792000
C          -3.36960200      1.12738800     -1.25336000
H          -1.20392300      2.35094100      0.42961900
H          -0.67453100      1.73659500     -1.15762100
H          -2.77085800      0.51693500      0.71275800
H           1.01044500      0.80880700      0.40960200
H          -0.26602400      0.38074900      1.57367500
H          -2.38086900     -1.62046800     -0.16169000
H          -1.87021300     -1.01892600     -1.74421700
H          -0.05493900     -1.73813600      0.42718000
H           0.36257400     -0.95798700     -1.10352600
H          -4.24189300      0.45551600     -1.31535900
H          -3.73193900      2.11673600     -0.92665600
H          -2.95875500      1.24042500     -2.27278100
