21
b3lypvdz=-274.963653255143 
C          -1.09260800      1.14294300     -0.16749400
C          -2.45767000      0.45161400     -0.27467300
C          -0.02773900      0.26646700      0.51692200
C          -3.46617200      1.13954000     -1.20685800
C           1.27885300      0.97968800      0.72883400
C          -3.75512400      2.60964000     -0.88446300
C           2.45887900      0.61466000      0.22030400
H          -1.19615700      2.08868300      0.39504300
H          -0.72886900      1.42759400     -1.17299700
H          -2.30822900     -0.58551200     -0.62893100
H          -2.89324900      0.36374300      0.73989100
H           0.14066700     -0.64803800     -0.07960800
H          -0.42302100     -0.07092500      1.49564600
H          -4.41133200      0.56815000     -1.17997900
H          -3.09593300      1.06425400     -2.24736400
H           1.22697900      1.89050900      1.34237900
H          -2.86128500      3.24205000     -1.01913000
H          -4.54236800      3.01342400     -1.54164800
H          -4.09847700      2.73521300      0.15815000
H           3.36682300      1.19278300      0.41208800
H           2.56273000     -0.28218100     -0.40030900
