9
b3lypvdz=-154.94857085962 
O           6.71759700     -1.01561800      1.98499200
C           7.12697100     -0.63927200      0.67454100
C           6.32643800      0.53305700      0.11755100
H           5.79144400     -1.29317400      1.92544800
H           7.07644500     -1.50536700     -0.01952700
H           8.18909200     -0.35666300      0.77027000
H           5.26296800      0.25594100     -0.00705900
H           6.37375800      1.39118800      0.80836900
H           6.71048600      0.85150800     -0.86668600
