23
b3lypvdz=-276.188364526933 
C          -0.99326300      1.12776100      0.12241400
C          -2.30745500      0.42515100     -0.27649900
C          -0.11306000      0.14478600      0.90912300
C          -1.23110200      2.43842500      0.89739800
C          -3.28434000      1.23401500     -1.13928300
C           0.03968200      3.22825800      1.23395500
C          -4.43940500      0.38005700     -1.67206200
H          -0.46078400      1.39287200     -0.81396600
H          -2.04321000     -0.49819300     -0.82622500
H          -2.82797000      0.08660600      0.64109000
H           0.05979600     -0.77922600      0.33288200
H           0.87187600      0.56840000      1.15891100
H          -0.60336000     -0.14215400      1.85702800
H          -1.78693700      2.21068500      1.82836000
H          -1.89459300      3.08922800      0.30311200
H          -3.69488000      2.07785400     -0.55715400
H          -2.73953900      1.68601700     -1.98980000
H           0.62400100      3.45582200      0.32483100
H           0.70172000      2.67948400      1.92285500
H          -0.21208200      4.18802500      1.71462200
H          -5.00475500     -0.08877200     -0.84714400
H          -4.06819400     -0.43403800     -2.31868800
H          -5.14894500      0.98083500     -2.26506100
