17
b3lypvdz=-197.619310492914 
C          -4.56732400      0.13231500     -1.46554900
C          -5.25204900     -0.51813800     -0.26050400
C          -6.34686000     -1.51265900     -0.66318100
C          -7.10329300     -2.15477900      0.50927900
C          -6.24418600     -3.04083800      1.41960900
H          -3.78557600      0.84452600     -1.15550400
H          -4.09050900     -0.62658700     -2.11090800
H          -5.29224500      0.68363300     -2.09036200
H          -5.69483600      0.26667700      0.38307400
H          -4.49116100     -1.02782700      0.35822400
H          -5.89844100     -2.31066800     -1.28808500
H          -7.07585600     -0.99210500     -1.31322900
H          -7.57653000     -1.35845200      1.11513100
H          -7.93441800     -2.75781400      0.10138800
H          -5.47345100     -2.46097000      1.95467000
H          -6.86254100     -3.54532800      2.18079700
H          -5.72572400     -3.82488500      0.83954900
