23
b3lypvdz=-276.18719006067 
C          -1.13568200      0.69659200      0.55518100
C          -2.50067300      0.28925700     -0.03054700
C          -1.17963900      2.03801600      1.30919200
C          -2.82394800      0.96967000     -1.37016200
C           0.19303600      2.61276500      1.69859900
C           0.95227100      3.25058500      0.52830400
C          -4.27971600      0.78617900     -1.80525600
H          -0.77884400     -0.08173200      1.25351200
H          -0.39141600      0.73227000     -0.26204200
H          -2.53879900     -0.80601000     -0.17407700
H          -3.29311300      0.52291300      0.70601000
H          -1.79391200      1.90069300      2.21773800
H          -1.71577800      2.79302300      0.70342200
H          -2.59414400      2.04955600     -1.31101600
H          -2.14861700      0.56422600     -2.14697300
H           0.80983000      1.81783400      2.15934400
H           0.05294400      3.37714900      2.48333200
H           1.20644400      2.51585200     -0.25292000
H           0.34470900      4.04148500      0.05336100
H           1.89357200      3.71523900      0.86538200
H          -4.97402100      1.23838900     -1.07605100
H          -4.54208800     -0.28291900     -1.88744800
H          -4.47601600      1.25876800     -2.78188700
