20
b3lypvdz=-236.902087249632 
C          -0.99406500      1.47253800     -0.09725100
C          -0.36194100      0.22680300      0.55863600
C          -0.33177100     -1.02586400     -0.32264700
C          -1.14062500      2.63247100      0.91604600
C          -0.26772200      1.91333800     -1.37921600
C           0.16849300      3.19910700      1.48471800
H          -2.02171300      1.18911800     -0.39908400
H           0.66684700      0.45994300      0.88765900
H          -0.92960800      0.00161300      1.48083800
H          -1.34093900     -1.29712600     -0.67906400
H           0.07011500     -1.88978400      0.23234500
H           0.30487300     -0.88871300     -1.21171100
H          -1.77078200      2.28089600      1.75392200
H          -1.70901100      3.44949300      0.43515500
H           0.78722300      2.17891100     -1.19347400
H          -0.28005900      1.11839400     -2.14234000
H          -0.75948200      2.79582700     -1.82184100
H           0.82589400      3.59280900      0.69159600
H           0.73888700      2.43807900      2.04338700
H          -0.03311200      4.02864900      2.18162400
