12
b3lypvdz=-194.239673682403 
O           6.72450500     -1.01970000      1.95823100
C           7.14015400     -0.63751800      0.64680800
C           7.13224900     -1.83606700     -0.30393100
C           6.31770700      0.54292700      0.12810600
H           5.80721900     -1.32811500      1.88720200
H           8.18345000     -0.30348500      0.78928000
H           6.10022800     -2.19919200     -0.46614800
H           7.71923000     -2.66434800      0.12276800
H           7.55572400     -1.57743500     -1.28863600
H           5.26048800      0.24846700     -0.01104400
H           6.34782200      1.37388500      0.85050600
H           6.69502300      0.90828100     -0.84134100
