17
b3lypvdz=-197.619846738564 
C          -0.98692900      1.32582900     -0.14621600
C          -2.28893400      0.52936200     -0.36015300
C           0.04403900      0.46263100      0.59097400
C          -1.21764800      2.65382000      0.58807600
C          -3.38691200      1.25517200     -1.13994700
H          -0.57390000      1.56840800     -1.14635700
H          -2.03590400     -0.41285900     -0.87966700
H          -2.68254300      0.22619000      0.62983600
H           0.26002700     -0.46828000      0.04073300
H           0.99647400      0.99978600      0.73241800
H          -0.32600200      0.17388100      1.59121900
H          -0.26349800      3.17876000      0.76135500
H          -1.69285200      2.48587300      1.57176700
H          -1.86781600      3.33396800      0.01603800
H          -4.25739500      0.59847400     -1.29932100
H          -3.74731400      2.15063600     -0.60872400
H          -3.02929400      1.58224800     -2.13193300
