14
b3lypvdz=-158.333881361004 
C          -6.38924600     -1.45274200     -0.64651000
C          -7.10751700     -2.13867300      0.52667800
C          -7.90424300     -1.18657600      1.42949600
C          -5.30012400     -0.45968000     -0.22185900
H          -5.93528400     -2.23120000     -1.28717800
H          -7.13762300     -0.93218100     -1.27453200
H          -6.36369300     -2.68479500      1.13832200
H          -7.79422100     -2.90418200      0.12143000
H          -7.24941400     -0.46788500      1.95083700
H          -8.45696200     -1.74748400      2.20199800
H          -8.64089500     -0.60739300      0.84484700
H          -4.77430700     -0.04957200     -1.10027100
H          -5.71938300      0.39358300      0.33725400
H          -4.54758800     -0.94881900      0.42208800
