20
b3lypvdz=-236.903610933078 
C          -0.90581300      1.33290300      0.01049200
C          -2.21407300      0.56888000     -0.28400000
C          -2.03053400     -0.79630100     -0.95753900
C          -1.19077900      2.55551800      0.90817700
C          -0.17104800      1.72079800     -1.28268100
C           0.05036700      3.20561900      1.53234200
H          -0.24938900      0.65077200      0.58784700
H          -2.87123800      1.20611700     -0.90554700
H          -2.75427200      0.41386100      0.66812300
H          -1.37438700     -1.45024100     -0.35806900
H          -2.99941200     -1.31154700     -1.06595500
H          -1.58891000     -0.71250300     -1.96381000
H          -1.86102900      2.23584100      1.72666300
H          -1.75846400      3.30989200      0.33064000
H           0.74232500      2.30132000     -1.07848300
H           0.13286400      0.83436600     -1.86170800
H          -0.81788400      2.33875200     -1.93110300
H           0.73991000      3.60946600      0.77325800
H           0.61536800      2.47887400      2.14239600
H          -0.23360100      4.04151300      2.19235700
