23
b3lypvdz=-276.187268367562 
C          -0.99387100      1.44943700     -0.20676800
C          -2.21322700      0.52257800     -0.42556900
C          -1.35353900      2.74346100      0.53862800
C          -3.42762300      1.15238400     -1.12586400
C          -0.24566600      1.76245000     -1.51281300
C          -4.57340500      0.16575000     -1.40742100
C          -5.25633800     -0.39249600     -0.15302000
H          -0.29556300      0.88116600      0.43659100
H          -1.87832100     -0.35508300     -1.01079300
H          -2.52940300      0.12587500      0.55593600
H          -0.44806400      3.31362000      0.80493000
H          -1.90623200      2.53557900      1.47040700
H          -1.98304200      3.40446100     -0.08056700
H          -3.82238500      1.98310500     -0.51262900
H          -3.10629500      1.60651700     -2.08013600
H           0.67336100      2.33660900     -1.30766700
H           0.04778700      0.84312100     -2.04739200
H          -0.86072900      2.36768600     -2.20105700
H          -4.19290600     -0.67092200     -2.02327600
H          -5.33187300      0.67604300     -2.02829800
H          -6.10288900     -1.04685500     -0.41729900
H          -5.65163700      0.42046300      0.48164200
H          -4.56714100     -0.98844600      0.46833500
