23
b3lypvdz=-276.186382654193 
C          -1.11218600      1.46399300     -0.02091600
C          -2.41698400      0.63816200     -0.15958700
C           0.10108100      0.55635200      0.23357900
C          -1.21438900      2.51857700      1.09190100
C          -3.36915600      1.04920200     -1.30308100
C          -4.58218100      0.10645500     -1.34074700
C          -3.82648600      2.51234100     -1.23239400
H          -0.93371700      1.98997600     -0.97788800
H          -2.15541400     -0.42278900     -0.32020300
H          -2.97270000      0.66583800      0.79807600
H           0.23076600     -0.18643300     -0.57111600
H           1.03181800      1.14534200      0.30071400
H          -0.01063600      0.00176700      1.18256700
H          -0.31330200      3.15446400      1.13046100
H          -1.31925400      2.02594300      2.07534200
H          -2.08272700      3.18315700      0.95916600
H          -2.81439300      0.91626600     -2.25324300
H          -5.16886700      0.18177800     -0.40761200
H          -4.26826600     -0.94494300     -1.45364300
H          -5.25870800      0.34834700     -2.17726300
H          -2.98123100      3.21511500     -1.30519000
H          -4.52042000      2.74628700     -2.05720700
H          -4.36104700      2.71950400     -0.28811700
