17
b3lypvdz=-309.653246994243 
O           6.75867300     -0.94573200      2.03523200
C           1.35651900      0.93345200      0.69597000
C           2.43252500      0.31314200      0.18246700
C           3.81505600      0.71201000      0.42179100
C           4.88460500      0.10975200     -0.13472700
C           6.32102800      0.49235900      0.08369800
C           7.14297500     -0.64841000      0.70356900
H           5.80058200     -1.09900700      2.02479300
H           0.34408700      0.58783600      0.47393400
H           1.45657200      1.80976500      1.34488400
H           2.28418000     -0.55858600     -0.46719900
H           3.97125600      1.57281400      1.08474300
H           4.71285000     -0.74844600     -0.80118100
H           6.38881300      1.37343000      0.74409700
H           6.78210000      0.76806700     -0.88471500
H           7.08004200     -1.54788000      0.05263500
H           8.20473600     -0.35516300      0.75400600
