20
b3lypvdz=-236.903168377685 
C          -0.98988300      1.41993000     -0.09033300
C          -2.19383800      0.46640700     -0.24445800
C          -1.71522100     -0.89187800     -0.77613600
C          -1.28614900      2.77365700      0.56172000
C          -3.30544500      1.08805400     -1.11612900
C          -4.52552400      0.19891400     -1.37679400
H          -0.21689000      0.89988400      0.50390600
H          -0.53836200      1.58528700     -1.08824300
H          -2.61866600      0.29782900      0.76629900
H          -0.90055500     -1.29285400     -0.15068800
H          -2.52342100     -1.64028700     -0.78702700
H          -1.32449400     -0.80311300     -1.80625000
H          -0.35865900      3.35439000      0.69497300
H          -1.74871600      2.64907300      1.55671400
H          -1.96887600      3.38964000     -0.04429100
H          -3.65019000      2.01765400     -0.63204900
H          -2.86381200      1.39818300     -2.08310500
H          -4.96858400     -0.16956900     -0.43458900
H          -4.27999100     -0.68149000     -1.99238300
H          -5.30932500      0.76049000     -1.91173700
