5
b3lypvdz=-40.480469602569 
C          -0.99613400      1.47754600     -0.17453900
H          -1.96318800      0.96424400     -0.28645300
H          -0.27418600      0.79771200      0.30152300
H          -1.12622800      2.37250600      0.45137400
H          -0.62186400      1.77649200     -1.16540600
