23
b3lypvdz=-276.187175994729 
C          -1.00323200      1.41376500     -0.07962600
C          -2.19171800      0.44243600     -0.24592700
C          -1.68648300     -0.90115700     -0.79076100
C          -1.32463300      2.76421400      0.56727600
C          -3.30907400      1.05460500     -1.11870200
C          -4.52293300      0.16057400     -1.42322300
C          -5.28421200     -0.32527000     -0.18500300
H          -0.23131900      0.90413000      0.52514000
H          -0.54105300      1.58401900     -1.07183100
H          -2.61020500      0.25940800      0.76331500
H          -0.87022800     -1.29627700     -0.16370000
H          -2.48002300     -1.66485400     -0.81946200
H          -1.28972300     -0.79301300     -1.81645500
H          -0.40447600      3.35081900      0.72312000
H          -1.80935100      2.63508900      1.55098400
H          -1.99735200      3.37628800     -0.05373900
H          -3.67702900      1.97160400     -0.62489800
H          -2.86185300      1.38522800     -2.07583700
H          -4.21295700     -0.70922400     -2.02947200
H          -5.21379500      0.73533800     -2.06631600
H          -6.17591600     -0.90701700     -0.47076100
H          -5.62321700      0.52068100      0.43847700
H          -4.66211900     -0.97358500      0.45440100
