14
b3lypvdz=-158.333950468396 
C          -2.27370800      0.60104800     -0.33747400
C          -4.52298600      0.03133700     -1.48295300
C          -5.31656200     -0.39307000     -0.23975100
C          -3.43290200      1.08250400     -1.21817800
H          -1.49830600      1.37933500     -0.23926500
H          -1.79120700     -0.29322100     -0.77087100
H          -2.60681700      0.33597000      0.68033800
H          -4.06039100     -0.85984100     -1.94968200
H          -5.22607900      0.43514900     -2.23398700
H          -6.11706500     -1.10487500     -0.50079200
H          -5.79325900      0.47774600      0.24589100
H          -4.67813300     -0.88303600      0.51459500
H          -3.89977400      1.97459600     -0.75769500
H          -3.02411100      1.42215700     -2.18727500
