19
b3lypvdz=-273.753455239749 
C          -1.01780800      1.40881500     -0.23624800
C          -0.02620100      0.48146600      0.48537400
C           1.36270200      1.05800600      0.66543800
C           1.43418700      2.40586700      1.33957600
C           2.44555200      0.37205300      0.23014000
C           3.84509500      0.76072400      0.33807500
C           4.87132200      0.02960600     -0.13250600
H          -1.98552600      0.90166500     -0.38225500
H          -1.21274700      2.32890900      0.33781900
H          -0.63921600      1.70748800     -1.22836800
H           0.04646800     -0.47516000     -0.05715300
H          -0.44026000      0.23974900      1.48481500
H           0.77799500      2.43760100      2.22708400
H           1.07409800      3.20010000      0.66102000
H           2.44863600      2.67942600      1.65721500
H           2.26874000     -0.59346100     -0.25953200
H           4.07219700      1.70920300      0.83522800
H           5.90506200      0.36608700     -0.02249000
H           4.70650600     -0.92704500     -0.63903300
