13
b3lypvdz=-195.176414576025 
C           2.36570200      0.51501800      0.21427300
C           3.67782400      0.71932400      0.41225000
C           4.76912000     -0.23836300      0.18512600
C           4.72482500     -1.34276100     -0.58182100
C           5.86020800     -2.30207000     -0.76275100
H           1.63837500      1.30740000      0.40473700
H           1.97283600     -0.44442000     -0.13549200
H           3.99357400      1.69304400      0.80549300
H           5.71593900      0.00064900      0.68566700
H           3.80329700     -1.57458100     -1.13065800
H           6.74027100     -2.00924300     -0.16906900
H           5.56408700     -3.32311700     -0.45778800
H           6.16754200     -2.37377800     -1.82226700
