21
b3lypvdz=-274.964034207748 
C          -0.97156800      1.18334400     -0.39754400
C          -2.36422500      0.52639100     -0.46201200
C           0.00782700      0.31650000      0.43047800
C          -3.47745600      1.45461400     -0.95736000
C           1.27941300      1.02966100      0.80173500
C          -0.40845000      1.46473900     -1.79892100
C           2.51945700      0.64264700      0.48827100
H          -1.08383400      2.14950600      0.13310400
H          -2.30744400     -0.37003700     -1.10781800
H          -2.63449200      0.15513800      0.54344400
H           0.24175700     -0.61307000     -0.11954300
H          -0.50599100      0.00950400      1.36169900
H          -4.45435300      0.94350300     -0.94460200
H          -3.56076600      2.34762800     -0.31457600
H          -3.30224700      1.80660500     -1.98737500
H           1.14637500      1.95280700      1.38318500
H           0.59384000      1.91897700     -1.74772800
H          -0.32089500      0.52422900     -2.37198900
H          -1.05318800      2.14707200     -2.37481600
H           3.39400800      1.21704900      0.80507100
H           2.70523100     -0.26960700     -0.08840300
