20
b3lypvdz=-236.903381921716 
C          -0.97973800      1.45115600     -0.21253700
C          -2.20929300      0.53497000     -0.41120300
C          -1.31299400      2.73871400      0.55539800
C          -3.43182500      1.17443100     -1.08552300
C          -0.26911300      1.77236500     -1.53753600
C          -4.55122100      0.16638100     -1.35705000
H          -0.26680400      0.87370600      0.40578300
H          -1.89121000     -0.34259900     -1.00522400
H          -2.52223300      0.13328600      0.57131200
H          -0.39877200      3.30838200      0.79077500
H          -1.82855400      2.52197500      1.50629300
H          -1.96696200      3.40304200     -0.03397000
H          -3.82406800      1.98753200     -0.44972700
H          -3.13026000      1.65189500     -2.03519500
H           0.65741300      2.34245800     -1.35771700
H           0.00382600      0.85552000     -2.08685100
H          -0.90354400      2.38337500     -2.20241700
H          -4.90653600     -0.30093000     -0.42172800
H          -4.20977200     -0.64782200     -2.01902600
H          -5.41943900      0.64456300     -1.83965700
