15
b3lypvdz=-196.393526421876 
C          -0.95247300      1.47613200     -0.09435300
C          -0.03095400      0.44145000      0.58832200
C          -1.16005500      2.77749800      0.68659500
C           1.39748300      0.88602600      0.74644500
C           2.45622500      0.29583300      0.18393800
H          -1.93289500      0.99666900     -0.26562100
H          -0.54526900      1.71149000     -1.09475600
H          -0.05088000     -0.49748800      0.00894100
H          -0.45041500      0.20243100      1.58598200
H          -0.21984700      3.34108500      0.80696900
H          -1.56635300      2.58461900      1.69544500
H          -1.87102200      3.43905300      0.16477900
H           1.56343000      1.77611300      1.36765900
H           3.47032200      0.67681700      0.33456300
H           2.34670200     -0.59682800     -0.44250900
