17
b3lypvdz=-197.61781399532 
C          -1.05880400      1.49870200     -0.22951200
C          -2.29320400      0.58840600     -0.35624100
C          -3.44303600      1.11911300     -1.22989100
C          -0.38089900      1.84895900     -1.56106900
C          -4.01346500      2.47745300     -0.80285300
H          -0.32656700      0.99127700      0.42502000
H          -1.33186400      2.42918600      0.30164300
H          -1.97100400     -0.39125200     -0.75757800
H          -2.68608400      0.38566600      0.65842900
H          -4.25665100      0.37045200     -1.21783100
H          -3.10676400      1.18123300     -2.28167900
H           0.53905300      2.43392000     -1.39531000
H          -0.10075700      0.94087000     -2.12396000
H          -1.03665500      2.45107200     -2.21247400
H          -3.26285200      3.28272700     -0.87843800
H          -4.86687700      2.76742100     -1.43739700
H          -4.37146900      2.45349400      0.24214200
