23
b3lypvdz=-276.188430176655 
C          -2.20916100      0.57782100     -0.46459600
C          -3.48070700      1.15589100     -1.09779100
C          -4.54326800      0.10950400     -1.47057600
C          -5.24380000     -0.55246000     -0.27566500
C          -6.29775700     -1.58466400     -0.69484200
C          -7.13256000     -2.16790500      0.45527800
C          -6.32884700     -2.93223700      1.51331400
H          -1.46251600      1.36873900     -0.28468000
H          -1.74272600     -0.17323000     -1.12626800
H          -2.40804500      0.08464700      0.50162800
H          -3.93199800      1.90053300     -0.41391900
H          -3.19715300      1.71595700     -2.00687100
H          -4.08057100     -0.67254500     -2.10411600
H          -5.31277700      0.59210600     -2.10194000
H          -5.72730900      0.23439300      0.33700200
H          -4.49652600     -1.03416000      0.38052100
H          -5.79604200     -2.41117100     -1.23614000
H          -6.98491800     -1.11783700     -1.42569800
H          -7.69562000     -1.35081400      0.94587100
H          -7.89461800     -2.84272100      0.02473900
H          -5.65111500     -2.26841100      2.07674300
H          -6.99671500     -3.41600500      2.24585200
H          -5.71115000     -3.72392800      1.05305600
