23
b3lypvdz=-276.184670069739 
C          -0.99696100      1.47396600     -0.20580800
C          -2.29748000      0.64363000     -0.35858300
C          -1.12150900      2.67791700      0.74421100
C          -3.41628000      1.14113000     -1.29956400
C          -0.39504300      1.88867300     -1.55711900
C          -4.51692600      0.06906000     -1.38839500
C          -4.02938200      2.49437600     -0.90371600
H          -0.27112500      0.78707900      0.27140400
H          -1.99860200     -0.35820300     -0.72130300
H          -2.73023800      0.47737400      0.64688400
H          -0.12530300      3.08680800      0.98629600
H          -1.59930300      2.38635900      1.69525200
H          -1.71018300      3.50056800      0.30807500
H          -2.98585100      1.25036700     -2.31268000
H           0.60026300      2.34415600     -1.41951800
H          -0.27698700      1.02082000     -2.22865900
H          -1.02656200      2.63152400     -2.07341900
H          -4.99571800     -0.08954800     -0.40509800
H          -4.10888200     -0.89942500     -1.72370300
H          -5.30566400      0.36555700     -2.09959900
H          -3.32323000      3.32729500     -1.04702200
H          -4.91607300      2.71501700     -1.52177800
H          -4.34996100      2.49690000      0.15304200
