15
b3lypvdz=-196.394067837353 
C          -0.04515300      0.59230300      0.41165400
C          -1.80635100     -0.93514100     -0.61251800
C          -0.32122200     -0.73076300     -0.30814500
C           1.39552800      0.90954300      0.71683500
C           2.47272500      0.20772100      0.34914400
H          -0.47101200      1.42912500     -0.17788000
H          -0.61259800      0.61915100      1.36285200
H          -2.19708700     -0.13775800     -1.26809300
H          -2.40985400     -0.92453100      0.31118600
H          -1.98877900     -1.89543600     -1.12157400
H           0.05308500     -1.56543600      0.31169100
H           0.25651300     -0.76850800     -1.24861500
H           1.54664400      1.82655400      1.30095500
H           3.47728400      0.53819200      0.62598200
H           2.39987700     -0.71451600     -0.23357500
