23
b3lypvdz=-276.189140494829 
C          -1.01895300      0.94131400      0.34923300
C          -2.34896000      0.43851500     -0.24531600
C          -2.17110100     -0.96335500     -0.84769400
C          -1.10491900      2.26010800      1.12981800
C          -2.93300700      1.40126100     -1.28908900
C           0.22005600      2.70974300      1.76696400
C           1.27726300      3.17546000      0.76118600
H          -0.62151500      0.16186800      1.02757900
H          -0.28250900      1.03180700     -0.47214900
H          -3.07523600      0.36033000      0.58833600
H          -1.78834400     -1.67868900     -0.10034200
H          -3.12477100     -1.35788800     -1.23691300
H          -1.45452200     -0.94339600     -1.68825600
H          -1.86165700      2.15054900      1.92939500
H          -1.47130500      3.06846500      0.47162900
H          -3.85701200      0.99140800     -1.73047200
H          -3.18380000      2.38346700     -0.85783000
H          -2.21681900      1.56892600     -2.11368400
H           0.63011100      1.88787900      2.38452100
H           0.00575200      3.53655500      2.46722600
H           1.60754800      2.35799300      0.09925300
H           0.88498300      3.98218000      0.11704100
H           2.17201700      3.56540000      1.27446500
