14
b3lypvdz=-233.241658836993 
C           1.36381300      1.04448600      0.69581300
C           2.38666200      0.32395000      0.20165700
C           3.78690800      0.67632700      0.38077600
C           4.86713000      0.05265400     -0.15230000
C           4.89424800     -1.06249400     -1.10496100
C           4.05634300     -1.27087300     -2.13561400
H           0.32766300      0.72420900      0.56285600
H           1.53452600      1.97968100      1.23897600
H           2.17249100     -0.59990000     -0.34391900
H           3.97748500      1.51627700      1.05918200
H           5.85023200      0.39549300      0.19079500
H           5.72496600     -1.76705800     -0.96647100
H           4.16970700     -2.14092600     -2.78685600
H           3.25832600     -0.56512600     -2.38023400
