13
b3lypvdz=-232.293233255462 
O           6.72027900     -1.29061300      1.76174300
C           4.98331500      0.07562300     -0.38556000
C           6.30616100      0.53845400      0.18023800
C           4.67325400     -1.16028800     -0.79651900
C           7.24145300     -0.57244900      0.65334000
H           5.82909200     -1.58103700      1.51488200
H           4.21126200      0.85279300     -0.45911800
H           6.11007400      1.21646700      1.03090900
H           6.82243500      1.15533200     -0.58246900
H           5.38629300     -1.99081400     -0.76190700
H           3.68429500     -1.38748700     -1.20277800
H           7.49007700     -1.24985300     -0.19088700
H           8.18981000     -0.12862800      0.99742700
