23
b3lypvdz=-276.185024835617 
C          -1.08940700      1.53621500     -0.22102000
C          -2.27938200      0.55358300     -0.35759700
C          -1.78240900     -0.85030200     -0.74401500
C          -3.41122000      1.07015300     -1.29016200
C          -0.36990700      1.91565600     -1.52302600
C          -4.58073800      0.07721100     -1.40039200
C          -3.94728300      2.44296500     -0.85131100
H          -0.35715000      1.07699200      0.46806100
H          -1.42958400      2.45607000      0.28401200
H          -2.72315800      0.47001500      0.65479600
H          -0.93968200     -1.15097300     -0.10013000
H          -2.56732300     -1.61344400     -0.63022300
H          -1.42906900     -0.89080000     -1.78914500
H          -2.98365800      1.18798000     -2.30409800
H           0.49693700      2.56314400     -1.31187400
H           0.00723700      1.03190500     -2.06416600
H          -1.02725200      2.47106600     -2.21232500
H          -4.99945600     -0.16155100     -0.40615900
H          -4.28490200     -0.87018500     -1.87613400
H          -5.39630200      0.50693200     -2.00543000
H          -3.17637700      3.22882100     -0.88393200
H          -4.77300200      2.76520600     -1.50625200
H          -4.34301500      2.40354100      0.17982100
