17
b3lypvdz=-197.620671537236 
C          -3.45754500      1.07855800     -1.17780400
C          -4.55040100      0.07019600     -1.55389800
C          -5.29242000     -0.48720300     -0.33116500
C          -6.38773300     -1.50354000     -0.67666100
C          -7.07936300     -2.08454200      0.56354200
H          -2.69600500      0.61333100     -0.52721600
H          -3.88233000      1.93890900     -0.63153300
H          -2.94244300      1.46971600     -2.07110300
H          -4.10002500     -0.76625200     -2.12070500
H          -5.27741300      0.55160700     -2.23486200
H          -5.74158600      0.35194100      0.23479300
H          -4.56066800     -0.96266400      0.35061900
H          -5.94685400     -2.32636400     -1.27059200
H          -7.14204600     -1.02063000     -1.32636700
H          -7.56050600     -1.29000100      1.16083000
H          -6.35530700     -2.60092400      1.21813300
H          -7.85875700     -2.81333700      0.28668800
