23
b3lypvdz=-276.188943189707 
C          -1.04025900      1.32392600     -0.29238100
C          -2.24913900      0.39255800     -0.51687800
C          -0.05569000      0.72460100      0.71940700
C          -3.43947000      1.05901200     -1.22227000
C          -0.31400800      1.66221700     -1.60390300
C          -4.63934800      0.13338600     -1.48171900
C          -5.35533500     -0.35679500     -0.21780700
H          -1.42911500      2.26761000      0.13811200
H          -1.91850400     -0.48979200     -1.09994700
H          -2.57891200     -0.00039800      0.46126200
H           0.37212200     -0.22223800      0.34385400
H           0.78410900      1.41152500      0.91494000
H          -0.54646000      0.50828200      1.68319900
H          -3.77571000      1.92411700     -0.61800400
H          -3.10484400      1.47957600     -2.18641500
H           0.53580800      2.34172300     -1.42574600
H           0.09013500      0.74660800     -2.07316200
H          -0.97720600      2.14869800     -2.33649600
H          -4.30529100     -0.73638900     -2.07831300
H          -5.36579100      0.67155100     -2.11702000
H          -6.22783700     -0.98088500     -0.47142000
H          -5.72009300      0.49014100      0.39019800
H          -4.69646300     -0.96333600      0.42581000
