20
b3lypvdz=-236.904582283071 
C          -1.10749300      1.56093700     -0.14787200
C          -2.18592300      0.49609000     -0.36733700
C          -3.34982500      0.98854200     -1.23666600
C          -4.46209900     -0.03900400     -1.49080300
C          -5.28717100     -0.42209900     -0.25269000
C          -6.46241900     -1.34604100     -0.58089200
H          -0.28675500      1.18815900      0.48649800
H          -1.52524400      2.45725300      0.34323300
H          -0.66633600      1.88995700     -1.10526800
H          -1.73463200     -0.39641600     -0.84145400
H          -2.56745500      0.15561700      0.61199600
H          -3.79384400      1.88968300     -0.77012600
H          -2.94306600      1.32486300     -2.20851300
H          -4.02823400     -0.95324700     -1.94138100
H          -5.15043300      0.37193700     -2.25268200
H          -5.66791000      0.50024000      0.22747600
H          -4.63833200     -0.90755300      0.49845500
H          -7.04970200     -1.59623800      0.31785100
H          -6.11315700     -2.29407400     -1.02603700
H          -7.14817100     -0.87620500     -1.30778900
