18
b3lypvdz=-235.683563703991 
C          -1.04616200      1.33539400     -0.15133700
C          -2.39591900      0.63872900     -0.37003100
C          -0.01194800      0.42378400      0.53524300
C           1.37686500      1.01728200      0.66716300
C           1.48052000      2.39888300      1.26763700
C           2.46584800      0.34134400      0.27476200
H          -1.20408900      2.24364700      0.45659700
H          -0.64465300      1.67677500     -1.12320400
H          -2.28733100     -0.25213700     -1.01246400
H          -3.11898000      1.31508300     -0.85541700
H          -2.83439600      0.30717300      0.58757800
H           0.05341300     -0.52998100     -0.01511800
H          -0.38685000      0.17140100      1.54839500
H           0.94408200      2.45526300      2.23231200
H           1.02778000      3.15502900      0.60263300
H           2.52875100      2.68738700      1.44009000
H           3.47095100      0.75775500      0.39420400
H           2.39121600     -0.65491100     -0.17164100
