18
b3lypvdz=-235.702689843823 
C          -0.96357000      1.45555000     -0.11168600
C          -2.25233300      0.63028800     -0.29977600
C           0.00450700      0.42909000      0.50387400
C          -1.78764000     -0.80265300     -0.66981000
C          -0.29202600     -0.89234400     -0.23605300
C          -1.14856900      2.72672000      0.71775500
H          -0.57509100      1.73881700     -1.10983000
H          -2.92839100      1.06683200     -1.05278000
H          -2.80645400      0.61613700      0.65678300
H           1.06081400      0.73617000      0.42184400
H          -0.22464000      0.32491200      1.58187300
H          -2.40778200     -1.56252700     -0.16981100
H          -1.88791100     -0.98115800     -1.75289400
H          -0.08604400     -1.77119700      0.39546000
H           0.35621500     -0.98434600     -1.12316500
H          -0.19272600      3.25945300      0.85854800
H          -1.54946800      2.48393000      1.71874500
H          -1.85199000      3.42722500      0.23682400
