17
b3lypvdz=-197.620656942181 
C          -1.05140600      1.26777900     -0.20351300
C          -2.29257300      0.39161500     -0.40717600
C           0.05327700      0.59375100      0.61370900
C          -3.38199100      1.06131500     -1.25250800
C          -4.62527100      0.19376900     -1.46143200
H          -1.34987900      2.21203300      0.28917200
H          -0.64945000      1.56279200     -1.19108200
H          -1.99326900     -0.56138400     -0.88460900
H          -2.71156100      0.11280000      0.57920700
H           0.39285800     -0.34121900      0.13571900
H           0.93236700      1.24980600      0.72107100
H          -0.29632900      0.33416000      1.62790200
H          -3.67617200      2.01562800     -0.77650600
H          -2.95411200      1.33652300     -2.23459300
H          -5.10798200     -0.05480200     -0.50021900
H          -4.37391700     -0.75907800     -1.95899200
H          -5.37509100      0.70621100     -2.08634900
