19
b3lypvdz=-273.753350598556 
C          -0.19410700      0.44732100     -0.13131500
C           1.12234900      1.06387000      0.26487500
C           0.86960000      2.62611300      2.26127100
C           1.04936300      2.50393000      0.73965100
C           2.27502900      0.35617400      0.21981200
C           3.59894700      0.83846700      0.59118300
C           4.72079200      0.09653300      0.57338100
H          -0.64825100      0.99807200     -0.97559500
H          -0.09228200     -0.60845900     -0.42413600
H          -0.92566400      0.50818300      0.69642700
H          -0.04214500      2.11036800      2.60454100
H           1.72120700      2.17872200      2.79888100
H           0.79272100      3.68315400      2.56609400
H           0.20302500      3.00219000      0.23527600
H           1.94903400      3.06090200      0.43263100
H           2.22779000     -0.68523700     -0.12143100
H           3.67835500      1.88112000      0.91669100
H           5.68326900      0.51829200      0.87111400
H           4.70906600     -0.95411600      0.26584800
