20
b3lypvdz=-236.90345699663 
C          -0.97091500      1.38118900     -0.21863900
C          -2.27315100      0.55748500     -0.41775100
C           0.01852800      0.51122700      0.57738300
C          -1.25055300      2.67417600      0.56957100
C          -3.46849400      1.28419400     -1.03945800
C          -0.33613800      1.73035200     -1.58068500
H          -2.02331800     -0.32632800     -1.03321900
H          -2.57809100      0.15679300      0.56727900
H           0.26976300     -0.41138900      0.02708300
H           0.95964700      1.05250000      0.77146800
H          -0.40505300      0.21334000      1.55127100
H          -0.31024700      3.20401100      0.79628800
H          -1.75284800      2.45526200      1.52766700
H          -1.89134800      3.36967000      0.00512000
H          -4.33049200      0.60228100     -1.12084500
H          -3.79194200      2.14174900     -0.42873900
H          -3.24890200      1.66492900     -2.05070000
H           0.60827500      2.28392200     -1.44331600
H          -0.10526100      0.81642700     -2.15396300
H          -0.99986000      2.35820900     -2.19711400
