17
b3lypvdz=-197.61845158632 
C          -2.31731600      0.61709500     -0.31773000
C          -3.42073000      1.09896600     -1.27356800
C          -4.52605200      0.03975900     -1.49080700
C          -3.99218300      2.45713700     -0.83503800
C          -5.28518800     -0.41594500     -0.23511700
H          -1.48418300      1.33954500     -0.28118200
H          -1.90214300     -0.35203300     -0.64386900
H          -2.69272700      0.49416400      0.71271900
H          -2.94523300      1.25695400     -2.26080100
H          -4.07180200     -0.84652400     -1.97187200
H          -5.25362400      0.44073900     -2.22036500
H          -3.20190900      3.22690000     -0.81699800
H          -4.77735100      2.80152900     -1.52863900
H          -4.43397900      2.41196000      0.17576300
H          -6.06761600     -1.14508900     -0.50322400
H          -5.78337000      0.42526500      0.27585200
H          -4.61869400     -0.90742200      0.49287600
