16
b3lypvdz=-234.46730566298 
C          -0.98264300      1.48593500     -0.14045100
C          -0.06074500      0.44228600      0.51199000
C           1.36043200      0.91047800      0.63688700
C           2.44718800      0.25756800      0.18532300
C           3.81333100      0.74549300      0.32277800
C           4.90936600      0.09247600     -0.09870600
H          -2.01815500      1.11223100     -0.20144400
H          -0.99874600      2.42430100      0.43941700
H          -0.64637300      1.73262500     -1.16133300
H          -0.09318700     -0.50170300     -0.05797000
H          -0.45341100      0.20902600      1.52131000
H           1.50431000      1.87811800      1.13840800
H           2.32014300     -0.71038800     -0.31656900
H           3.92985600      1.72197700      0.80853700
H           5.90819200      0.51511400      0.03310900
H           4.83964200     -0.88633600     -0.58378700
