23
b3lypvdz=-276.182965766807 
C          -1.09265600      1.64419100     -0.30320600
C          -2.28866600      0.64945800     -0.33476900
C          -1.78034300     -0.78556900     -0.55823700
C          -1.05372500      2.52722200      0.95090300
C          -3.37804200      1.06098100     -1.35969900
C          -4.56149500      0.07940300     -1.39564000
C          -3.90678800      2.48292500     -1.10468800
H          -0.14915900      1.07388600     -0.36187200
H          -1.10340200      2.28477600     -1.20426400
H          -2.76753800      0.67290500      0.66525600
H          -0.99221700     -1.03208000      0.17261400
H          -2.57404300     -1.53996500     -0.44637700
H          -1.34042400     -0.89791000     -1.56577600
H          -0.19943600      3.22541300      0.93823700
H          -0.96963100      1.90976800      1.86261500
H          -1.97070600      3.13347700      1.04663600
H          -2.90140900      1.04987200     -2.36091000
H          -5.02281800     -0.02172400     -0.39650200
H          -4.26575500     -0.92498600     -1.73457000
H          -5.34347000      0.44040700     -2.08427300
H          -3.11514400      3.24696600     -1.15842200
H          -4.67405700      2.75247800     -1.84898600
H          -4.37797800      2.55380500     -0.10786900
