20
b3lypvdz=-236.899169709811 
C          -0.97968000      1.47529100     -0.19523700
C          -2.27926100      0.63668200     -0.29134000
C          -1.09298200      2.69084300      0.74127000
C          -3.41087400      1.12367000     -1.21541900
C          -0.43300800      1.88128900     -1.57272400
C          -4.03845400      2.48653600     -0.88439200
H          -0.22925100      0.80409100      0.26607100
H          -1.99487600     -0.37470600     -0.63923200
H          -2.68616900      0.49741400      0.72847400
H          -0.09852900      3.13014000      0.93219500
H          -1.51978700      2.40114700      1.71695700
H          -1.72460300      3.48923000      0.31944800
H          -4.20856800      0.35808900     -1.18336800
H          -3.05181600      1.13342200     -2.26077100
H           0.55979600      2.35294400     -1.47735600
H          -0.32657500      1.00704600     -2.23777100
H          -1.09325900      2.60899500     -2.07490900
H          -3.35581400      3.32259300     -1.10835100
H          -4.95140800      2.64890100     -1.48171500
H          -4.31938200      2.55418100      0.18076800
