14
b3lypvdz=-158.335279280514 
C          -1.07340800      1.48882700     -0.17240600
C          -2.26470000      0.53986500     -0.32330100
C          -4.53316400      0.10955400     -1.44243100
C          -3.34837400      1.06337700     -1.27282100
H          -0.32267300      1.09135400      0.53017600
H          -1.39212300      2.47618400      0.20521600
H          -0.56835200      1.65332800     -1.14040800
H          -1.90837000     -0.44335500     -0.68504700
H          -2.71541800      0.35112700      0.66944900
H          -5.02925700     -0.08958800     -0.47627200
H          -4.21058800     -0.86299000     -1.85350700
H          -5.29310500      0.52373500     -2.12525600
H          -3.71398200      2.03910700     -0.90008500
H          -2.89358600      1.26937500     -2.26020600
