23
b3lypvdz=-276.185376552885 
C          -1.04975800      1.33354400      0.11517200
C          -2.33562700      0.54931000     -0.23873700
C          -1.95308900     -0.87233700     -0.70105000
C          -1.18421500      2.53888800      1.06266600
C          -3.23213400      1.19819700     -1.31664500
C           0.17933000      3.10702300      1.49088100
C          -3.96188200      2.49988100     -0.95007000
H          -0.34689800      0.62262300      0.59107600
H          -0.55404400      1.65529200     -0.82248900
H          -2.94054700      0.44814800      0.68550500
H          -1.40083600     -1.41701300      0.08326700
H          -2.84394000     -1.46812300     -0.96272000
H          -1.30592200     -0.83068600     -1.59614600
H          -1.74678800      2.22876400      1.96405900
H          -1.77415300      3.34288600      0.59247400
H          -3.99909200      0.45172000     -1.59498200
H          -2.62833600      1.35790200     -2.23100800
H           0.75173200      3.47983800      0.62270900
H           0.79498000      2.33727800      1.99020000
H           0.06188200      3.94837100      2.19440800
H          -3.28174200      3.36223600     -0.87005900
H          -4.71012200      2.75178500     -1.72045500
H          -4.49919800      2.40337300      0.00984400
