23
b3lypvdz=-276.188315686132 
C          -0.97254900      1.41453100     -0.12466900
C          -2.18857000      0.48422200     -0.26750000
C          -1.26446200      2.77666600      0.51340300
C          -3.35968600      1.08396300     -1.05953800
C          -4.47184200      0.08810500     -1.42140900
C          -5.24408600     -0.48855800     -0.22519100
C          -6.42836400     -1.35953900     -0.65122800
H          -0.20077400      0.89311100      0.46949400
H          -0.52490900      1.57587500     -1.12404900
H          -1.85640200     -0.44546600     -0.76749500
H          -2.53613500      0.17695900      0.73671100
H          -0.33787200      3.36165900      0.63330200
H          -1.72590000      2.66854400      1.51095000
H          -1.95189600      3.37946900     -0.10188500
H          -3.80368700      1.92116500     -0.49011300
H          -2.96375200      1.52905000     -1.99173800
H          -4.04485400     -0.74492500     -2.01280800
H          -5.19113300      0.59500900     -2.09180400
H          -5.60478100      0.34318500      0.40969200
H          -4.56298400     -1.08064000      0.41239900
H          -6.96975300     -1.77186800      0.21597800
H          -6.09513000     -2.20991100     -1.27122400
H          -7.15088000     -0.78120400     -1.25337700
