20
b3lypvdz=-236.903246071029 
C          -1.21991700      0.93174200      0.39207400
C          -2.57361800      0.57963600     -0.24769700
C          -1.17620300      2.31435400      1.05977900
C          -2.94559800      1.42553300     -1.46887800
C           0.15926400      2.66005100      1.73813500
C           1.31479100      2.92683600      0.76854300
H          -0.97565000      0.16839500      1.15455600
H          -0.43017300      0.85127200     -0.37918800
H          -2.55786200     -0.48382900     -0.54870500
H          -3.36759300      0.67193500      0.51858600
H          -1.97981900      2.36173000      1.81912200
H          -1.41262000      3.10006100      0.31932600
H          -3.88998200      1.07481100     -1.91691700
H          -3.07864600      2.48937200     -1.21083100
H          -2.16659500      1.36323200     -2.24969700
H           0.44083700      1.84590700      2.43247400
H           0.00940900      3.55472600      2.36905800
H           1.56214600      2.03991600      0.16151800
H           1.06791200      3.74334700      0.06793300
H           2.22831600      3.21987300      1.31220700
