13
b3lypvdz=-195.175105233205 
C           3.82220100      0.75166600      0.31210000
C           4.87929800      0.04206200     -0.10547100
C           4.82163800     -1.13685400     -1.00680800
C           5.73635200     -2.28541400     -0.64947400
C           4.02025600     -1.17212000     -2.08504600
H           2.80487700      0.48473200      0.00988300
H           3.94402300      1.61570600      0.97161800
H           5.87549300      0.31380300      0.27148800
H           6.79367300     -1.96015700     -0.65652400
H           5.52665700     -2.65590300      0.37001300
H           5.62785400     -3.12599300     -1.35104500
H           3.97434100     -2.05582800     -2.72870600
H           3.40603600     -0.31300000     -2.36573000
