12
b3lypvdz=-157.108956231364 
C           1.35433500      0.91788900      0.67184800
C          -0.07428500      0.47091700      0.49778600
C          -0.27651800     -0.87828200     -0.19446200
C           2.45209100      0.28319800      0.24948600
H           1.47517400      1.86805700      1.20918100
H          -0.62615900      1.26198300     -0.04763900
H          -0.55027200      0.44850700      1.49795500
H          -1.34890800     -1.12552400     -0.25786800
H           0.22296300     -1.69262800      0.35629300
H           0.12932200     -0.87372700     -1.22027600
H           3.44675200      0.69817100      0.43620700
H           2.40690400     -0.66626000     -0.29191200
