14
b3lypvdz=-158.333901022381 
C          -1.07616100      1.52026600     -0.24824100
C          -2.28325300      0.57718000     -0.37461400
C          -0.35077600      1.80553500     -1.56867800
C          -3.47406100      1.15517100     -1.14774500
H          -0.35815200      1.07921800      0.46658300
H          -1.40689400      2.47297200      0.20749200
H          -1.95335300     -0.36401500     -0.85397900
H          -2.62300600      0.29532900      0.63838400
H           0.52391300      2.45786700     -1.41208200
H           0.01328900      0.87281200     -2.03526200
H          -1.00495800      2.30755900     -2.30114100
H          -4.32276700      0.45104300     -1.15355400
H          -3.82982100      2.09460900     -0.68962300
H          -3.22009900      1.37685500     -2.19794100
