23
b3lypvdz=-276.185130261582 
C          -0.95836500      1.26191600     -0.10672700
C          -2.30036200      0.56684900     -0.47623400
C          -0.09623600      0.20637300      0.61410900
C          -1.23690000      2.46434300      0.83388700
C          -3.39172000      1.42912700     -1.11894800
C          -0.23574100      1.72072700     -1.39004800
C          -0.01804700      3.18507400      1.42610000
H          -2.06535500     -0.27041500     -1.15883600
H          -2.71097300      0.09971300      0.43830300
H           0.03571700     -0.68513800     -0.02176700
H           0.90705000      0.58539300      0.86465500
H          -0.57686100     -0.12161200      1.55189100
H          -1.87431500      2.10451400      1.66370800
H          -1.84616600      3.20601400      0.28858400
H          -4.26984000      0.80999700     -1.36507600
H          -3.73837600      2.23358700     -0.45106400
H          -3.05228000      1.90131000     -2.05575600
H           0.72708500      2.20781700     -1.16733100
H          -0.02251400      0.86146800     -2.04855900
H          -0.84192100      2.44025900     -1.96416000
H           0.64584500      3.58839300      0.64373300
H           0.58644800      2.52713900      2.07124300
H          -0.34377500      4.03695200      2.04529000
