23
b3lypvdz=-276.188328518173 
C          -2.32350000      0.55427400     -0.27699900
C          -1.64105500     -0.75319700     -0.69799900
C          -3.44258800      1.03915300     -1.21604900
C          -4.55791300      0.02580700     -1.52721200
C          -5.31926800     -0.49156800     -0.29801200
C          -6.44118800     -1.47520900     -0.65542400
C          -7.14274400     -2.06595200      0.57409100
H          -1.55963000      1.35088900     -0.21728900
H          -2.72207200      0.44095300      0.74808300
H          -0.78923800     -0.97921500     -0.03587200
H          -2.33052200     -1.61252300     -0.64763300
H          -1.25433600     -0.69077400     -1.73044800
H          -3.89796200      1.94529000     -0.77413700
H          -2.98708900      1.36365100     -2.17060800
H          -4.13885700     -0.83375600     -2.08188800
H          -5.27733000      0.50615900     -2.21617200
H          -5.74585200      0.36478700      0.25926200
H          -4.61773600     -0.99263900      0.39444200
H          -6.02062700     -2.29672400     -1.26551500
H          -7.18512700     -0.96345600     -1.29484700
H          -7.59961300     -1.27406500      1.19305200
H          -6.43023400     -2.61840700      1.21169000
H          -7.94241700     -2.76667800      0.28248500
