21
b3lypvdz=-274.969626365779 
C          -0.99437700      1.38410500     -0.26725500
C          -2.40000100      0.77503300     -0.20952500
C           0.02329100      0.46813800      0.45633900
C           1.41311800      1.04197200      0.64063200
C          -0.57647100      1.67603800     -1.71240700
C           1.52209300      2.29305400      1.47861800
C           2.49719600      0.45581600      0.11361100
H          -1.03008400      2.34399800      0.28154700
H          -2.43772300     -0.18271500     -0.75855500
H          -3.14358400      1.44722700     -0.66885600
H          -2.71648100      0.57448300      0.82749400
H           0.09479300     -0.48848300     -0.09051300
H          -0.38787000      0.22661800      1.45560200
H           0.42186700      2.13827600     -1.76453200
H          -0.53705900      0.74081200     -2.29957700
H          -1.29256800      2.35238100     -2.20814500
H           1.06157500      2.14737500      2.47315900
H           0.98006500      3.13766200      1.01841200
H           2.56990400      2.59782700      1.61762100
H           3.49999300      0.86105300      0.27840700
H           2.41752200     -0.45426900     -0.48757800
