23
b3lypvdz=-276.187507139041 
C          -2.27867500      0.60674200     -0.38862300
C          -1.59034400     -0.71757500     -0.75749700
C          -0.20349600     -0.87622700     -0.12605500
C          -3.45949700      1.01082700     -1.28765600
C          -4.57666100     -0.02407000     -1.49019200
C          -5.31785900     -0.47642500     -0.22478700
C          -6.51895100     -1.36986600     -0.55021700
H          -1.52855800      1.41922500     -0.43599700
H          -2.60414400      0.56586400      0.66804900
H          -2.22942000     -1.56647300     -0.45184700
H          -1.49951000     -0.79275300     -1.85782200
H          -0.24423300     -0.80137400      0.97508200
H           0.24972500     -1.84941500     -0.37871500
H           0.48616300     -0.09076800     -0.48189500
H          -3.90401800      1.93687000     -0.87712100
H          -3.06148200      1.28274600     -2.28274000
H          -4.17324200     -0.91587300     -2.00635500
H          -5.31562500      0.41147400     -2.18935300
H          -5.65798800      0.40922700      0.34561700
H          -4.62472500     -1.01876700      0.44416000
H          -7.03622100     -1.71924600      0.35822400
H          -6.20665100     -2.26172200     -1.12146900
H          -7.25758800     -0.83062200     -1.16939300
