20
b3lypvdz=-236.902022711292 
C          -1.02101400      1.29372100     -0.09780100
C          -2.33813000      0.55577700     -0.44011200
C          -1.25970500      2.50685100      0.82572800
C          -3.41004200      1.38832600     -1.15548100
C          -0.23480600      1.66038000     -1.36708800
C           0.00615000      3.07315800      1.48177000
H          -0.40745500      0.57151000      0.47592100
H          -2.08860200     -0.31835000     -1.06964300
H          -2.77001600      0.14237700      0.48987900
H          -1.96075400      2.20052800      1.62423100
H          -1.77142600      3.31072000      0.26548700
H          -4.27807200      0.76043800     -1.41539700
H          -3.77950900      2.21597300     -0.52765400
H          -3.03280900      1.82798400     -2.09371900
H           0.71996900      2.15646300     -1.13197000
H           0.00061900      0.76112000     -1.96121600
H          -0.80883600      2.34622700     -2.01275300
H           0.72792100      3.44871000      0.73831700
H           0.51965100      2.30496800      2.08652400
H          -0.23853200      3.91381900      2.15147500
