17
b3lypvdz=-197.618456609063 
C          -5.30252500     -0.45678500     -0.21663700
C          -6.39229800     -1.45371400     -0.63369300
C          -7.12877000     -2.16520500      0.52300800
C          -7.89853000     -1.18552300      1.42245900
C          -6.19397900     -3.05401800      1.35896100
H          -4.83477600     -0.00261900     -1.10590900
H          -5.71159300      0.36560300      0.39386600
H          -4.50027000     -0.94411000      0.36240000
H          -5.94175000     -2.22333000     -1.28831800
H          -7.14139400     -0.92575000     -1.25349800
H          -7.87678100     -2.83164300      0.05133300
H          -7.21554900     -0.52960700      1.99053500
H          -8.51597000     -1.73163300      2.15608400
H          -8.57249500     -0.54132200      0.83124400
H          -5.46190300     -2.45385400      1.92682200
H          -6.76974300     -3.64845300      2.08913400
H          -5.63227300     -3.75923700      0.72200800
