17
b3lypvdz=-197.615114068924 
C          -1.01791200      1.50784000     -0.20200700
C          -2.28707100      0.63566800     -0.26804700
C          -1.07392100      2.67746100      0.78577000
C          -3.40922400      1.10166000     -1.21028200
C          -4.00386800      2.48787800     -0.94366200
H          -0.17108400      0.86021300      0.08679600
H          -0.77326300      1.88185500     -1.21501400
H          -1.99311300     -0.37693100     -0.59674600
H          -2.69075200      0.51241700      0.75572300
H          -0.10291500      3.19627500      0.84698900
H          -1.32152800      2.31552600      1.80004000
H          -1.83060800      3.42827400      0.51344200
H          -4.22257900      0.35433100     -1.16069100
H          -3.03231700      1.06545800     -2.25052900
H          -3.27118900      3.29420200     -1.11036500
H          -4.86063200      2.68275900     -1.60887400
H          -4.36392300      2.58131400      0.09615700
