23
b3lypvdz=-276.183004836891 
C          -1.02359500      1.49945100     -0.20237200
C          -2.28331900      0.61972400     -0.34316500
C          -1.11468100      2.66326900      0.79511000
C          -3.40309200      1.10648300     -1.28842000
C          -4.49822700      0.02544200     -1.45851100
C          -4.01206200      2.46947300     -0.91166600
C          -5.27524400     -0.35938000     -0.18915600
H          -0.19604500      0.84398700      0.12446800
H          -0.72523900      1.88210000     -1.19792800
H          -1.96269300     -0.36947000     -0.71927700
H          -2.69781100      0.43533100      0.66628400
H          -0.12770300      3.13175700      0.94712600
H          -1.46510900      2.30675800      1.78078700
H          -1.80439700      3.45584900      0.46683000
H          -2.93692300      1.22905500     -2.28625300
H          -4.03414000     -0.88223500     -1.88672000
H          -5.21585500      0.38507400     -2.21879400
H          -3.29163500      3.29006400     -1.05468800
H          -4.88654800      2.69050000     -1.54720600
H          -4.34726700      2.50368800      0.13926000
H          -6.07047100     -1.08632700     -0.42323900
H          -5.75944500      0.51372500      0.28107000
H          -4.62499700     -0.82621800      0.56946100
