14
b3lypvdz=-158.335411686195 
C          -2.20527400      0.71986700     -0.44935100
C          -1.65911300     -0.67338300     -0.78023500
C          -0.31893200     -0.97857500     -0.11011400
C          -3.51299300      1.04326900     -1.17307300
H          -1.44008600      1.47869700     -0.70164700
H          -2.35571500      0.80093600      0.64465700
H          -2.40468000     -1.43635800     -0.48379400
H          -1.56057900     -0.76775400     -1.87894000
H          -0.39555200     -0.92614700      0.99044000
H           0.04663900     -1.98539000     -0.37162000
H           0.45888200     -0.25731600     -0.41599600
H          -4.28342300      0.27647800     -0.97885300
H          -3.92756600      2.01277100     -0.85159100
H          -3.36440800      1.08890300     -2.26658400
