17
b3lypvdz=-197.619915962092 
C          -0.88959000      1.49063500     -0.13987800
C          -2.13407600      0.58218500     -0.21262100
C          -1.87728300     -0.83429500     -0.73559900
C          -1.19559900      2.75216500      0.67727800
C          -0.35605800      1.86516900     -1.53203300
H          -0.09606600      0.92517100      0.38887600
H          -2.89539600      1.08069700     -0.84474900
H          -2.58098700      0.51360400      0.79603100
H          -1.14389200     -1.36552800     -0.10498100
H          -2.80433900     -1.43087300     -0.74004500
H          -1.48000400     -0.83061400     -1.76444200
H          -0.31256800      3.40794600      0.76102900
H          -1.52946400      2.49824500      1.69777200
H          -2.00105900      3.34036400      0.20146800
H           0.54458900      2.49762300     -1.45678300
H          -0.08779000      0.98057200     -2.13119300
H          -1.11431600      2.43743400     -2.09752800
