12
b3lypvdz=-157.109354490609 
C           1.38565700      1.13068500      0.38790800
C           0.12953200      2.72647700      1.89917600
C           1.36976000      2.49456000      1.02240100
C           2.34902200      0.21629500      0.53303700
H           0.51265200      0.88382600     -0.23281600
H          -0.79664900      2.59894200      1.31202000
H           0.09425500      2.01304300      2.73862400
H           0.12290800      3.74498000      2.32104300
H           1.38649900      3.25770200      0.22011200
H           2.28903700      2.64405500      1.61523300
H           3.23521600      0.41253400      1.14623100
H           2.28861300     -0.75800000      0.04063200
