16
b3lypvdz=-234.473223249262 
C          -0.05570200      0.45998900      0.51039600
C           1.36348100      0.91318100      0.68197900
C           2.45155500      0.26484500      0.22553700
C           3.82337300      0.72448100      0.39718500
C           4.91192400      0.07817500     -0.06096400
C           6.33011500      0.53622200      0.10759700
H          -0.65652200      1.21315400     -0.03199100
H          -0.11598100     -0.48712900     -0.04891600
H          -0.55286800      0.31575800      1.48714200
H           1.50801600      1.85795900      1.22303500
H           2.31837000     -0.68184800     -0.31439800
H           3.95630300      1.67049400      0.93831000
H           4.76852800     -0.86651900     -0.60247900
H           6.93896000     -0.22325800      0.63186000
H           6.38936600      1.47406300      0.68233300
H           6.81888100      0.70133100     -0.87022500
