20
b3lypvdz=-236.90458570912 
C          -1.04023400      1.24498700     -0.22254400
C          -2.25880800      0.32859200     -0.38057900
C           0.04109500      0.68537800      0.70312900
C          -3.34023900      0.91849900     -1.29437100
C          -4.57273600      0.02905700     -1.51661400
C          -5.41463300     -0.22119000     -0.26093800
H          -1.37622200      2.22773500      0.15816000
H          -0.60587600      1.44533400     -1.22013000
H          -1.93181200     -0.64966600     -0.78358500
H          -2.68250800      0.11627300      0.61846300
H           0.41653600     -0.28763300      0.34157300
H           0.90448800      1.36662800      0.77556600
H          -0.34701200      0.52801800      1.72456300
H          -3.66913400      1.89345200     -0.88513400
H          -2.88383000      1.14398100     -2.27599500
H          -4.25157000     -0.93855300     -1.94677600
H          -5.20880000      0.50223800     -2.28596200
H          -6.30926100     -0.82182100     -0.49325800
H          -5.76082300      0.72824100      0.18545900
H          -4.84842000     -0.76115000      0.51567000
