19
b3lypvdz=-273.758200504267 
C          -0.06373500      0.47520600      0.50578400
C           1.36116600      0.90539200      0.69712300
C           2.44073000      0.26266100      0.21329900
C           3.81880800      0.69886300      0.40019300
C           4.89555800      0.07065500     -0.10865900
C           6.32469800      0.49565300      0.07819000
C           7.19479300     -0.60084300      0.71922600
H          -0.65408800      1.25669800     -0.00772800
H          -0.13266500     -0.44831900     -0.09088900
H          -0.56283700      0.29683700      1.47604200
H           1.51517700      1.82659200      1.27531800
H           2.29549300     -0.66018200     -0.36361800
H           3.96701700      1.61186000      0.99179400
H           4.74055800     -0.84360800     -0.69926200
H           6.36318100      1.41248000      0.69107400
H           6.75949800      0.76004600     -0.90576600
H           6.81200800     -0.87826500      1.71553100
H           7.20674100     -1.51516900      0.10153900
H           8.23770000     -0.26085700      0.83520800
