16
b3lypvdz=-271.577296364522 
O           6.94851400     -1.20125700      2.08696800
C           4.71918400     -1.11424200     -1.17597700
C           7.23557900     -0.68291500      0.79325600
C           5.59820000     -2.16814000     -0.55601400
C           7.05714100     -1.71857500     -0.32239700
C           4.04209700     -1.25131700     -2.32060400
H           5.99574800     -1.36284900      2.14023300
H           4.64245900     -0.16113500     -0.63669600
H           6.64071700      0.22812500      0.57919900
H           8.28990000     -0.36542700      0.83617100
H           5.17162400     -2.48557000      0.41636100
H           5.58407900     -3.06822700     -1.19258700
H           7.66499200     -2.60085100     -0.05749900
H           7.47019700     -1.30635000     -1.26052100
H           4.07679200     -2.18119300     -2.89847900
H           3.43077900     -0.43987600     -2.72421400
