23
b3lypvdz=-276.188650720204 
C          -1.02349600      1.20497200      0.18687100
C          -2.25675400      0.36022000     -0.20123800
C          -1.79536800     -0.97892000     -0.80002500
C          -1.29246500      2.50192600      0.96041300
C          -3.21063000      1.12063700     -1.14486300
C          -0.00178200      3.18712700      1.42580100
C          -4.47567300      0.35443400     -1.55275200
H          -0.35477100      0.57123800      0.79950000
H          -0.44786100      1.44473200     -0.72913700
H          -2.81897900      0.13621200      0.72824300
H          -1.10808900     -1.50195800     -0.11420500
H          -2.63759100     -1.65821500     -1.00365600
H          -1.25540300     -0.81931300     -1.75058100
H          -1.92868600      2.28084400      1.83816700
H          -1.86979600      3.20680900      0.33714400
H          -3.51674600      2.06053400     -0.65422300
H          -2.65206800      1.42004400     -2.05312000
H           0.64490800      3.44540000      0.56935100
H           0.58368800      2.53169000      2.09408700
H          -0.21456400      4.11923700      1.97433600
H          -5.02602800     -0.00857900     -0.66687000
H          -4.25185800     -0.51965000     -2.18534200
H          -5.15978900      1.00218000     -2.12600100
