15
b3lypvdz=-308.437510216005 
O          -0.26363500     -0.68780800      0.25858800
C          -1.42263000     -0.04572500      0.60413100
C          -1.45218000      1.04090200      1.40007000
C          -3.94717800     -0.25012300      0.52378900
C          -5.04803300     -0.03418200     -0.20869400
C          -2.50381900     -1.59110700     -0.97503500
C          -2.62585700     -0.66300500     -0.00488600
H           0.47821100     -0.18932300      0.63318400
H          -2.38626300      1.55253600      1.62198600
H          -0.53553900      1.45763600      1.82649200
H          -4.00701700     -0.11760600      1.61020500
H          -5.04105700     -0.10477400     -1.30055300
H          -5.99378400      0.23143000      0.27012900
H          -3.38366600     -2.08443700     -1.39197000
H          -1.52555300     -1.87761500     -1.36123600
