18
b3lypvdz=-649.859468775481 
N           4.05638200     -2.72875400      0.14951600
C           3.42998500     -1.46298000      0.54104000
C           1.94127800     -1.49919500      0.18955700
C           1.14728400     -0.25817100      0.63968600
C           1.65938800      1.06624800      0.11204600
C           2.14621400      2.03445300      0.90092200
S           1.52997500      1.20107300     -1.67440000
H           5.05600800     -2.69957100      0.36420000
H           3.68397000     -3.48345900      0.73275000
H           3.54797300     -1.20154200      1.61759300
H           3.92106900     -0.65244700     -0.02324500
H           1.48234000     -2.38184600      0.67270900
H           1.84107200     -1.65709200     -0.89751600
H           0.09575400     -0.38634300      0.32651100
H           1.14585300     -0.19617300      1.74108400
H           2.50827500      2.98857300      0.51210900
H           2.18914700      1.88195500      1.98296700
H           2.09863300      2.42857100     -1.78882900
