16
b3lypvdz=-234.461325688631 
C           1.83136700     -1.74346800      0.27002200
C           1.13854800     -0.45557000      0.74426900
C           1.55475700      0.77512500     -0.00859700
C           2.14551200      1.84910500      0.54692900
C           2.55734800      3.08744500     -0.12750500
C           2.65764000      3.30775900     -1.44850900
H           2.92184600     -1.69432200      0.42712500
H           1.44492100     -2.61517500      0.82234800
H           1.65288400     -1.92049700     -0.80445800
H           0.04483200     -0.58842500      0.62759300
H           1.32882700     -0.30743800      1.82192200
H           1.33426900      0.78133600     -1.08465500
H           2.33474500      1.82203300      1.62757500
H           2.81316600      3.91188600      0.54854600
H           2.44960700      2.52830900     -2.18704700
H           2.96482900      4.28219700     -1.83445800
