15
b3lypvdz=-308.433914419701 
O          -0.38444000     -0.19021300     -0.23857600
C          -1.46308300      0.07585400      0.56410200
C          -1.35409000      0.53070000      1.82455500
C          -3.83264600      0.54422500      0.06115700
C          -3.76145900     -2.21346700     -1.28738200
C          -2.73360100     -1.38727000     -1.05417200
C          -2.74640600     -0.23028700     -0.12801500
H           0.42271100     -0.02956800      0.27362900
H          -2.23746200      0.67563500      2.44405100
H          -0.37589000      0.75694400      2.25923200
H          -3.79935000      1.41124200      0.72426800
H          -4.76792900      0.34047900     -0.46399800
H          -4.71695100     -2.10746600     -0.76439600
H          -3.67053200     -3.03439000     -2.00320100
H          -1.77757300     -1.57091800     -1.55245400
