16
b3lypvdz=-213.64542977284 
C           5.54367800     -2.49408700      0.41141600
N           4.11761500     -2.59134000      0.13378700
C           3.36490500     -1.41290200      0.54487300
C           1.87441900     -1.57652200      0.24894400
C           1.05717400     -0.33036700      0.58839800
H           6.05026700     -3.42228700      0.10107700
H           5.80120600     -2.29992800      1.47818700
H           5.97927400     -1.67051600     -0.17984800
H           3.74136000     -3.40702700      0.62284600
H           3.50418800     -1.15059200      1.62255700
H           3.76233300     -0.55086900     -0.02362000
H           1.48601800     -2.44164000      0.82013800
H           1.75910500     -1.83812700     -0.81742100
H           1.41949000      0.54704400      0.02628700
H          -0.00816800     -0.46678400      0.34121300
H           1.12313600     -0.08365400      1.66256400
