16
b3lypvdz=-271.578672021214 
C           3.39335000     -1.23295800      0.58300700
C           1.95883600     -1.64186600      0.25395700
C           0.95551000     -0.52800900      0.51868300
O          -0.32782600     -0.97146500      0.08209500
C          -1.39277800     -0.26274800      0.54229000
C          -2.58203600     -0.25745300     -0.06646400
H           4.10026700     -2.04610700      0.35527600
H           3.51112800     -0.98123200      1.65104800
H           3.70687500     -0.35183700     -0.00146300
H           1.66369100     -2.52706300      0.84235200
H           1.87394300     -1.92783700     -0.80804000
H           1.24092500      0.39232500     -0.02664600
H           0.91728000     -0.26997100      1.59599200
H          -1.22049400      0.28337700      1.47977600
H          -3.41264100      0.27805900      0.39311200
H          -2.74193000     -0.79281500     -1.00377500
