16
b3lypvdz=-309.418290157206 
     C     -1.32911300     -0.07955200      0.49720500
     C     -3.92189500      1.11805400      1.43802700
     C     -3.83969600      0.14327500      0.49871000
     C     -5.06965000     -0.37856000     -0.09986500
     C     -5.06089900     -1.34331800     -1.05109900
     C     -3.80631100     -1.90705000     -1.52137400
     C     -2.62608400     -1.48100500     -1.01196100
     C     -2.54510500     -0.44736200      0.02196500
     H     -4.89322900      1.50954900      1.74953000
     H     -6.01236900      0.04791600      0.25453200
     H     -5.99559200     -1.71335300     -1.48040200
     H     -3.83116300     -2.68200400     -2.29211800
     H     -1.68524500     -1.90987300     -1.36823800
     H     -0.42126300     -0.54835900      0.11096800
     H     -1.19709700      0.68122500      1.26872300
     H     -3.04408800      1.55321800      1.91789800
