17
b3lypvdz=-309.650934868901 
C           1.77981700     -1.74409400      0.11029700
C           1.07064600     -0.48401000      0.60322800
C           1.55174600      0.77423700     -0.06824700
C           2.12800800      1.80422800      0.57866100
C           2.59142300      3.07142500     -0.00149300
C           2.78964900      3.34467900     -1.30080900
O          -0.31997400     -0.68597500      0.32680300
H           2.84955600     -1.72178800      0.37035800
H           1.31761600     -2.62600200      0.58033200
H           1.67842500     -1.84067000     -0.98313700
H           1.24536400     -0.38559100      1.69565100
H           1.36101700      0.82742000     -1.14788600
H           2.26232500      1.70928900      1.66408800
H           2.79655300      3.86411100      0.72742600
H           2.64003800      2.59323800     -2.08127300
H           3.12048600      4.33369700     -1.62464700
H          -0.78309600      0.12800800      0.57624600
