14
b3lypvdz=-233.233881163315 
C          -2.68395900      1.66125500      2.03063300
C          -3.70969300      1.04645600      1.42450000
C          -3.65181700     -0.01128600      0.38206600
C          -4.97325800     -0.43485100     -0.14880600
C          -5.22190300     -1.35353700     -1.09336700
C          -2.49087000     -0.55098600     -0.04631200
H          -1.63809900      1.43639600      1.79884000
H          -2.86774700      2.42631300      2.78929300
H          -4.72157900      1.35109200      1.71957400
H          -5.83261900      0.07727700      0.30008500
H          -4.42742100     -1.91038600     -1.59859900
H          -6.24599900     -1.58025800     -1.39965800
H          -1.52664900     -0.23910600      0.36017400
H          -2.46378600     -1.32718000     -0.81442100
