14
b3lypvdz=-630.445021782556 
C           1.95713900     -1.50695700     -0.04251500
C           1.19017100     -0.34166300      0.59270100
C           1.71464900      1.02014800      0.16104000
C           2.23077600      1.91514600      1.01158800
S           1.54200100      1.32032500     -1.61431100
O          -0.21135800     -0.45961700      0.36455500
H           3.02152900     -1.48713100      0.24440500
H           1.51324800     -2.45543700      0.29679900
H           1.89630200     -1.48001700     -1.14465900
H           1.31504100     -0.39273200      1.68739900
H           2.61905800      2.88309500      0.68686100
H           2.27055800      1.68616100      2.08069900
H           1.45956400      2.67264300     -1.53853700
H          -0.37447700     -0.16696300     -0.54752400
