14
b3lypvdz=-270.357036246324 
C           1.07467100     -0.28666900      0.60437400
O          -0.16629200     -0.70341600      0.05057200
C          -1.29238600     -0.11235200      0.51784500
C          -1.40106300      0.85125600      1.45757000
C          -2.65969000      1.46025300      1.90944200
C          -3.91508100      1.21643500      1.49252300
H           1.84732300     -0.88103200      0.10008300
H           1.25564400      0.78800000      0.41939000
H           1.11313900     -0.47598100      1.69283800
H          -2.16124300     -0.53864200      0.00884100
H          -0.49807400      1.23489700      1.93682800
H          -2.52837200      2.21636400      2.69274400
H          -4.14982900      0.48395200      0.71373000
H          -4.75874700      1.75643500      1.92702000
