17
b3lypvdz=-309.648008048083 
C           2.03511800     -1.43205800      0.10922900
C           0.99886600     -0.50700400      0.71385700
O          -0.28614700     -0.93739200      0.25501500
C          -1.37571400     -0.24618000      0.66016400
C          -1.42888100      0.83077800      1.47419600
C          -2.65538300      1.53416800      1.85911600
C          -3.91021400      1.36339800      1.40815700
H           3.04154200     -1.14446300      0.45231400
H           1.85062400     -2.47504100      0.41150800
H           2.01169500     -1.37666800     -0.99020000
H           1.16501100      0.54306300      0.40900000
H           1.01967600     -0.54046200      1.81945900
H          -2.27537600     -0.69289500      0.22978000
H          -0.50408600      1.22240000      1.90067400
H          -2.49731800      2.30764900      2.61999400
H          -4.16994100      0.63212900      0.63755500
H          -4.72767200      1.96777700      1.80478400
