10
b3lypvdz=-155.885027229024 
C          -5.16540200     -1.44403100     -1.16324000
C          -3.93364200     -1.87208100     -1.48427200
C          -2.65425400     -1.40216200     -0.92942300
C          -2.47264600     -0.45871700      0.00900200
H          -5.34202100     -0.66259400     -0.41774200
H          -6.04644800     -1.87104800     -1.64732000
H          -3.84731700     -2.65856800     -2.24313100
H          -1.76522500     -1.89058600     -1.34484800
H          -1.46852400     -0.18925000      0.34551900
H          -3.30642200      0.07433800      0.47475300
