11
b3lypvdz=-231.084478818778 
O          -0.36260200     -0.63453600      0.07868100
C          -1.40526200      0.06713900      0.62847800
C          -1.24955200      1.04404700      1.54178800
C          -3.91217700      0.01978800      0.36053500
C          -2.68063100     -0.41691700      0.06609100
H           0.46169400     -0.31255000      0.47474800
H          -2.10749800      1.57494500      1.95286900
H          -0.25967800      1.33793000      1.90196500
H          -4.09639100      0.82052400      1.08312100
H          -4.78579500     -0.42058400     -0.12421400
H          -2.55670800     -1.22288500     -0.66476300
