17
b3lypvdz=-309.648930630894 
C           1.88065100     -1.51972000      0.10327900
C           0.96665900     -0.46519700      0.69680900
O          -0.35340200     -0.72897300      0.22885200
C          -1.37848900      0.05239300      0.68897100
C          -1.24486300      1.08151700      1.54813000
C          -3.87679100      0.04774800      0.32921200
C          -2.64483400     -0.42024800      0.09300600
H           2.91614300     -1.36023800      0.44424100
H           1.56278500     -2.52703500      0.41679600
H           1.86440300     -1.47737200     -0.99730000
H           1.27198900      0.55342000      0.38999100
H           0.98244200     -0.49868600      1.80302300
H          -2.12614100      1.64228800      1.85705100
H          -0.28551900      1.39161400      1.95675700
H          -4.06918400      0.86988800      1.02370800
H          -4.74199000     -0.38788800     -0.17404500
H          -2.50246100     -1.25080800     -0.60558300
