16
b3lypvdz=-271.582092790348 
C           3.37017200     -1.34074500      0.55247300
C           1.90889200     -1.58739600      0.17099500
C           0.97608200     -0.49751800      0.67730300
O          -0.33736100     -0.80713100      0.21265700
C          -1.35606500     -0.01005400      0.61714800
C          -1.30601000      1.08335800      1.39113400
H           4.02468000     -2.12707500      0.14516800
H           3.50974400     -1.32768400      1.64740100
H           3.73340800     -0.37574600      0.15817200
H           1.56407800     -2.55481000      0.57549600
H           1.80204500     -1.64860400     -0.92585500
H           1.28046400      0.49862800      0.29897000
H           0.97547900     -0.44364200      1.78364200
H          -2.29740800     -0.38685100      0.20541600
H          -2.23463800      1.60561200      1.62479300
H          -0.38126300      1.48155600      1.80978800
