17
b3lypvdz=-309.651277735056 
C           2.04962000     -1.40571400      0.33240300
C           0.92716700     -0.39496000      0.45841800
O          -0.29624000     -1.01992600      0.04956800
C          -1.43150700     -0.42732300      0.49455700
C          -3.83803600     -0.00773600      0.44993400
C          -5.07308100     -0.11984300     -0.06810100
C          -2.62716200     -0.58411600     -0.10581600
H           3.00288700     -0.95180400      0.64778900
H           1.85278000     -2.28355500      0.96661700
H           2.15405100     -1.74858900     -0.70859900
H           1.11159500      0.49010900     -0.17806400
H           0.83267900     -0.04136800      1.50266400
H          -1.33118300      0.17332700      1.40914700
H          -3.70881800      0.56237100      1.37866400
H          -5.25825700     -0.67950600     -0.98944800
H          -5.93247900      0.34821200      0.41555200
H          -2.68401500     -1.16867900     -1.02898500
