14
b3lypvdz=-233.245117178353 
C          -2.64814800      1.64951000      2.06473600
C          -3.76559000      1.15201400      1.50123200
C          -3.77368500      0.12202800      0.47620400
C          -4.90041600     -0.37628700     -0.08608300
C          -4.98745300     -1.41580700     -1.11749600
C          -3.97070300     -2.07502200     -1.70189500
H          -1.65400500      1.29556400      1.77416900
H          -2.69808000      2.42495800      2.83353100
H          -4.73971400      1.53739200      1.82712800
H          -2.79359100     -0.25542700      0.16006700
H          -5.86317600      0.02556600      0.25278300
H          -6.00557400     -1.67137300     -1.43464300
H          -2.92307100     -1.88738100     -1.44681100
H          -4.16539300     -2.83533700     -2.46252300
