13
b3lypvdz=-555.257830210781 
C           1.90793100     -1.51522900      0.12819300
C           1.11835400     -0.30072700      0.63908800
C           1.62367800      1.03319300      0.12810900
C           2.19930800      1.95240500      0.91410600
S           1.35806000      1.24511400     -1.63778800
H           2.96948000     -1.44445000      0.41668700
H           1.49819000     -2.44407600      0.55565800
H           1.86073600     -1.59481600     -0.96960800
H           0.05589200     -0.41469400      0.35677000
H           1.15489900     -0.27068900      1.74080900
H           2.56048600      2.91142100      0.53685500
H           2.32074300      1.75233500      1.98215800
H           1.93954300      2.46651400     -1.74953800
