15
b3lypvdz=-631.442466840499 
C           1.88803900     -1.58266500      0.24835000
C           1.04760700     -0.33514800      0.56683300
C           1.63667500      0.95434900      0.06028400
C           2.36661200      1.88644400      0.75802500
C           2.78652300      3.00141400     -0.03369100
C           2.38034100      2.90703200     -1.33906000
S           1.47213400      1.44736000     -1.61437700
H           2.90534900     -1.48739900      0.66113100
H           1.42619600     -2.48374800      0.68455700
H           1.97847100     -1.73690200     -0.83925800
H           0.03063100     -0.46874400      0.15915000
H           0.93317400     -0.24065300      1.66000100
H           2.59416700      1.77859600      1.82057000
H           3.35942100      3.84425900      0.35602700
H           2.55356000      3.60900400     -2.15264100
