14
b3lypvdz=-270.363079605154 
C           1.01503100     -0.29914100      0.59190200
O          -0.24788400     -0.65444200      0.05460400
C          -1.35019300     -0.02552200      0.55375300
C          -1.34421700      0.93411000      1.50402700
C          -2.66852600     -1.47084000     -0.99017300
C          -2.59500800     -0.50745700     -0.06115300
H           1.75225600     -0.92824600      0.07592800
H           1.24834700      0.76587800      0.40746300
H           1.06140900     -0.49330100      1.67967000
H          -2.28958500      1.36974300      1.82822500
H          -0.43670600      1.30717500      1.97534900
H          -3.63027200     -1.78286600     -1.40465300
H          -1.77135800     -1.97096900     -1.35993400
H          -3.50549500     -0.01862200      0.29949200
