15
b3lypvdz=-668.499467439903 
C           1.04245300     -0.23178000      0.52598500
C           1.56736200      1.10827100      0.04816800
C           2.24489400      1.93445200      0.85652800
S           1.26023400      1.37721100     -1.69402100
O          -0.24942600     -0.56604900      0.02359900
C          -1.34345700      0.01185800      0.60209500
C          -1.40023400      0.91475000      1.58792200
H           1.69327000     -1.02993300      0.13638100
H           1.06168500     -0.26894400      1.62954000
H           2.69215100      2.86677800      0.50506000
H           2.37875300      1.68330400      1.91232600
H           1.96994100      2.53231400     -1.78238900
H          -2.24466500     -0.39233400      0.13284600
H          -2.37818800      1.24813100      1.93788000
H          -0.52027300      1.35957100      2.05137900
