11
b3lypvdz=-231.086671292515 
O          -0.20750000     -0.59597800      0.08023200
C          -1.39947900     -0.07238000      0.48750800
C          -3.85304400      0.03828700      0.40229700
C          -5.05179900     -0.34964400     -0.06956500
C          -2.57118800     -0.50017700     -0.01836900
H           0.50703200     -0.14663200      0.55023400
H          -1.35713500      0.71684900      1.25038200
H          -3.81895700      0.82400600      1.16969800
H          -5.14006900     -1.12966900     -0.83298300
H          -5.97763200      0.09935100      0.29606700
H          -2.55492900     -1.28831400     -0.77970300
