14
b3lypvdz=-270.358220196663 
C           0.97446200     -0.31594600      0.54156800
O          -0.33482900     -0.62859300      0.10193700
C          -1.37560700      0.06119600      0.66264500
C          -1.25344600      1.02540200      1.59572400
C          -3.88222200     -0.00646100      0.36565900
C          -2.64281800     -0.42318000      0.07602900
H           1.64926400     -0.97847000     -0.01637200
H           1.23284900      0.73755300      0.32575800
H           1.09104700     -0.49675800      1.62649600
H          -2.14206500      1.52040400      1.98645200
H          -0.29299100      1.34789700      1.99339200
H          -4.08525500      0.77529500      1.10395600
H          -4.74511800     -0.44561400     -0.13918800
H          -2.50127100     -1.21072700     -0.67155500
