13
b3lypvdz=-667.341417545386 
C           1.03680300     -0.34531300      0.53502900
C           1.64918600      0.93842500      0.04998900
C           2.27935900      1.92135100      0.77406200
C           2.75217900      3.00863600     -0.02685400
C           2.47329500      2.84132100     -1.35744100
S           1.62333300      1.35222300     -1.65683500
O          -0.29761300     -0.54470400      0.08428200
H           1.60173800     -1.21314400      0.15733000
H           1.11716400     -0.36551800      1.64126000
H           2.40575700      1.86929000      1.85745700
H           3.26630000      3.88222200      0.37616200
H           2.70422800      3.51060800     -2.18418800
H          -0.79532900      0.25960100      0.29744700
