14
b3lypvdz=-233.237614102287 
C          -2.65759400      1.58247500      1.99505700
C          -3.77115000      1.07669000      1.44049000
C          -3.87465700      0.03465000      0.39950600
C          -5.10383700     -0.32032500     -0.03836200
C          -2.52952200     -1.53202700     -1.05990600
C          -2.62936200     -0.57798700     -0.12364200
H          -1.65202600      1.25851600      1.71736000
H          -2.72575900      2.35783500      2.76238100
H          -4.73468600      1.47008300      1.78557300
H          -5.25726000     -1.08220700     -0.80583700
H          -6.00178100      0.15223500      0.36674000
H          -3.40012400     -1.97475200     -1.55212700
H          -1.55118300     -1.90860000     -1.36858800
H          -1.69836000     -0.20278600      0.30945600
