15
b3lypvdz=-308.443555345881 
O          -0.24415000     -0.55318200     -0.00870100
C          -1.32567200      0.05680100      0.56949200
C          -1.22745200      1.00609300      1.52635000
C          -5.21515100     -1.54557100     -1.19387500
C          -3.95133000     -1.90283700     -1.48341500
C          -2.71407200     -1.37158900     -0.90452700
C          -2.60176400     -0.41943500      0.04863100
H           0.55866900     -0.18861400      0.39286200
H          -2.12169700      1.45962400      1.95317700
H          -0.25940500      1.34877100      1.90224900
H          -5.45461700     -0.77627400     -0.45338800
H          -6.05778800     -2.02081400     -1.70027100
H          -3.80131100     -2.68132100     -2.24023500
H          -1.78878400     -1.80176200     -1.29644400
H          -3.48827700      0.04931000      0.48569400
