19
b3lypvdz=-273.746317431931 
C           3.34889800     -1.66498900      0.53072900
C           1.83423000     -1.68527900      0.32466000
C           1.13335600     -0.38408800      0.76925900
C           1.54893800      0.83653800      0.00014600
C           2.14022100      1.91795300      0.54028000
C           2.56386100      3.13981200     -0.15476000
C           2.69605400      3.32336400     -1.47840200
H           3.80945400     -2.61856800      0.22504100
H           3.60545000     -1.49282500      1.59066700
H           3.82542600     -0.86308000     -0.05488800
H           1.38941800     -2.52488400      0.88667000
H           1.60397600     -1.87442300     -0.73994500
H           0.04151700     -0.52498400      0.65247200
H           1.32185800     -0.21890400      1.84552200
H           1.33331800      0.82327800     -1.07658400
H           2.32369600      1.90988400      1.62205500
H           2.80408500      3.98148000      0.50543200
H           2.50819300      2.52265500     -2.19927100
H           3.01105200      4.28706000     -1.88408300
