13
b3lypvdz=-307.305264444724 
O          -0.26162500     -0.61058100      0.06474400
C          -1.40504500     -0.02573000      0.53700200
C          -1.39311100      0.98005600      1.51513800
C          -2.59801900      1.53691400      1.95619200
C          -3.81563500      1.09783000      1.42902900
C          -3.81969300      0.09347000      0.45256600
C          -2.62255300     -0.46954200      0.00465000
H           0.49610700     -0.21520900      0.52025300
H          -0.44514900      1.33450300      1.93517500
H          -2.58324700      2.32095400      2.71829300
H          -4.75385600      1.53479700      1.77950300
H          -4.76532600     -0.25951700      0.03254700
H          -2.61644800     -1.25334600     -0.75619400
