17
b3lypvdz=-309.6420177699 
C           1.87804700     -1.46763200      0.25576100
C           0.89385000     -0.37775100      0.63913000
O          -0.34049100     -0.66918200     -0.01562600
C          -1.49141400     -0.01080000      0.34527200
C          -1.42478700      1.04802300      1.37399000
C          -2.35972200      1.25028700      2.31367800
C          -2.63003100     -0.34853200     -0.29007900
H           2.85542900     -1.27876000      0.72751300
H           1.51359400     -2.45357800      0.58504700
H           2.01570300     -1.49789000     -0.83664200
H           1.27207800      0.60993000      0.31159000
H           0.75633300     -0.34316400      1.73506700
H          -0.55410500      1.71249300      1.34299700
H          -3.22092200      0.58407000      2.41145900
H          -2.28411300      2.08661100      3.01319000
H          -3.55077000      0.19453600     -0.08804300
H          -2.62697800     -1.14606100     -1.03490300
