14
b3lypvdz=-270.351198725866 
C           1.10182800     -0.40418600      0.52312800
C           1.58716100      0.92598300      0.01771400
C           2.03058200      1.91961300      0.79159400
O          -0.17640300     -0.76858000     -0.00956400
C          -1.24765000     -0.07729800      0.47677100
C          -2.50312200     -0.35136500      0.11005800
H           1.77083300     -1.21064000      0.18292100
H           1.08479100     -0.42098200      1.63023500
H           1.56549200      1.04288100     -1.07338700
H           2.39915500      2.85536700      0.36318200
H           2.05040100      1.83303600      1.88394600
H          -1.00869800      0.72441600      1.18708100
H          -3.32479600      0.23013400      0.52732900
H          -2.72367300     -1.14927800     -0.60250900
