15
b3lypvdz=-308.437847161797 
O          -0.28669100     -0.58841700      0.11640000
C          -1.35239800      0.07110700      0.67623000
C          -1.22258400      1.00450000      1.64155100
C          -3.85025400      0.02130900      0.36659400
C          -5.09451800     -0.45389300     -0.24719800
C          -5.22599500     -1.38157000     -1.21210700
C          -2.60207900     -0.39551000      0.06555200
H           0.52398200     -0.27270400      0.54402700
H          -2.09119100      1.50673700      2.06523600
H          -0.24207900      1.28767300      2.03352400
H          -3.97684000      0.78491100      1.14173500
H          -6.00465700      0.01391000      0.14490500
H          -4.36556900     -1.89152400     -1.65482500
H          -6.21064900     -1.66123800     -1.59363800
H          -2.45177800     -1.15879100     -0.70468700
