14
b3lypvdz=-270.351643804285 
C           1.04228600     -0.29151100      0.58151500
C           1.58386500      1.01587000      0.06819900
C           2.32570600      1.86503400      0.78256400
O          -0.24900900     -0.62271800      0.06162500
C          -1.34182200      0.00316800      0.57922600
C          -1.40802600      0.97692100      1.49608400
H           1.67952900     -1.11774000      0.22353700
H           1.03911300     -0.31765200      1.68787800
H           1.37495100      1.22143500     -0.98933000
H           2.74837100      2.76655600      0.33116600
H           2.54721500      1.68726000      1.84120000
H          -2.24135300     -0.42425300      0.12418500
H          -2.38846000      1.34548300      1.80214500
H          -0.53076700      1.44304800      1.94410500
