11
b3lypvdz=-231.080297090746 
O          -0.19400100     -0.70508400     -0.04043000
C          -1.29535100     -0.09063800      0.48172400
C          -3.97056400      1.13810900      1.46832300
C          -3.78907600      0.17479300      0.54640900
C          -2.53347800     -0.41108700      0.06546100
H           0.59375900     -0.34332600      0.38688400
H          -1.10763600      0.66876100      1.25106600
H          -3.13750100      1.62198200      1.98782600
H          -4.97322500      1.48053000      1.73403300
H          -4.68354300     -0.24924700      0.07530800
H          -2.60578600     -1.18599200     -0.70450500
