11
b3lypvdz=-591.154643601367 
C           1.10774400     -0.29934900      0.47226800
C           1.71089400      1.03375400      0.07628000
C           2.30117300      1.87471700      0.93346600
S           1.52066300      1.34420200     -1.68905500
O          -0.30088400     -0.34865900      0.32020600
H           1.60603400     -1.10352800     -0.10979900
H           1.32394200     -0.48441300      1.53562800
H           2.74612200      2.82246500      0.62115200
H           2.34754000      1.62032300      1.99618700
H           1.75963400      2.67949000     -1.65982800
H          -0.50776200      0.01519900     -0.55570400
