6
b3lypvdz=-78.533102971749 
C           1.59762300      0.99018900      0.09441200
C           2.31007700      1.89221100      0.77218800
H           1.19961700      0.09446800      0.58209100
H           1.38710900      1.11439900     -0.97294100
H           2.70808200      2.78793300      0.28450900
H           2.52059200      1.76800000      1.83954200
