17
b3lypvdz=-309.646305213123 
C           2.01157200     -1.52668600      0.33337300
C           0.99600000     -0.40078600      0.36926500
O          -0.30268300     -0.94835500      0.11638700
C          -1.35296600     -0.17742700      0.49857900
C          -3.98982700      0.91313000      1.65134600
C          -3.77249500      0.39365100      0.42854800
C          -2.58470500     -0.33703500     -0.01913100
H           3.02147500     -1.12557300      0.52031700
H           1.78311300     -2.28415200      1.10049300
H           2.01108300     -2.02867400     -0.64786500
H           1.22411800      0.36342300     -0.39808400
H           1.00395700      0.09920700      1.35687000
H          -1.13319800      0.57362200      1.27063300
H          -3.28409400      0.77311700      2.47657000
H          -4.89543400      1.48633000      1.86521000
H          -4.55601600      0.51690700     -0.33001900
H          -2.70470200     -1.04449900     -0.84679100
