17
b3lypvdz=-251.711356413815 
N           4.06023500     -2.76208700      0.13179100
C           3.43401300     -1.51225700      0.57192900
C           1.94514000     -1.52796900      0.21764800
C           1.17051000     -0.27964300      0.67642200
C           1.67127000      1.00433800      0.07286300
C           2.07595700      2.07753000      0.75981900
H           5.05789100     -2.74671500      0.35689100
H           3.67989200     -3.54041300      0.67749400
H           3.54900400     -1.29503300      1.65860500
H           3.93040400     -0.67905200      0.04601200
H           1.47914200     -2.41894300      0.67847000
H           1.84626600     -1.66199300     -0.87440400
H           0.10967400     -0.41804700      0.39389900
H           1.19804000     -0.20127000      1.77827600
H           1.69634600      1.04009700     -1.02547200
H           2.42143100      2.98536300      0.25904600
H           2.07158500      2.08909300      1.85581400
