12
b3lypvdz=-232.108718392274 
C          -3.83684400      0.06819200      0.43051600
C          -5.05083500     -0.37683900     -0.10311200
C          -5.05997300     -1.37231800     -1.08665900
C          -3.85517400     -1.92252500     -1.53644700
C          -2.64120200     -1.47751700     -1.00278700
C          -2.63205700     -0.48203100     -0.01923300
H          -3.82954200      0.84606000      1.19880800
H          -5.99106300      0.05407700      0.25086800
H          -6.00733800     -1.72258800     -1.50485700
H          -3.86251200     -2.70031700     -2.30481300
H          -1.70098700     -1.90847200     -1.35675700
H          -1.68467500     -0.13182100      0.39897500
