11
b3lypvdz=-231.083249273955 
O          -0.10753800     -0.61324100      0.08065000
C          -1.27483800     -0.07352600      0.51701900
C          -1.41350700      0.90671100      1.43177600
C          -2.67691200      1.48775300      1.89946100
C          -3.93124600      1.18704100      1.51827600
H           0.62608900     -0.17048600      0.53867500
H          -2.12080500     -0.55300400      0.01733800
H          -0.50198400      1.32326800      1.88032100
H          -2.55372500      2.26846800      2.65929700
H          -4.15456900      0.42428200      0.76559300
H          -4.78496500      1.70613400      1.95799400
