7
b3lypvdz=-476.683449781088 
C           2.38618000      2.78917600     -1.21036900
S           1.40997700      1.40505100     -1.74539200
C           2.84543800      3.05746400      0.01664400
H           2.60122100      3.46370000     -2.04626100
H           1.33080300      0.78723700     -0.53665200
H           2.64633700      2.40725100      0.87343300
H           3.43754400      3.95812200      0.19559700
