14
b3lypvdz=-270.351228284797 
C           0.90263300     -0.33631900      0.75148800
O          -0.29052700     -0.66889800      0.05907200
C          -1.46614600     -0.02461700      0.36980200
C          -1.43831500      1.13261600      1.28830200
C          -2.39532300      1.41593200      2.18411900
C          -2.58947300     -0.46823000     -0.22641000
H           1.64867000     -1.08106600      0.43960300
H           1.28053800      0.66479200      0.47205900
H           0.78181900     -0.38810100      1.84877500
H          -0.57729100      1.80584500      1.20919600
H          -3.25206900      0.75188800      2.33026400
H          -2.34813200      2.32161800      2.79416500
H          -3.53361300      0.05369100     -0.08144300
H          -2.55317300     -1.33625100     -0.88699300
