13
b3lypvdz=-232.296942347254 
C           1.92867100     -1.52106800      0.17047600
C           0.97252200     -0.46336300      0.68542500
O          -0.32841200     -0.77819600      0.18621000
C          -1.36388600     -0.00877200      0.60271100
C          -1.33740700      1.06052600      1.41084500
H           2.94827200     -1.32114500      0.53736600
H           1.62204100     -2.51989600      0.52041100
H           1.94781500     -1.52989600     -0.93062200
H           1.26373800      0.54813200      0.34283700
H           0.94739100     -0.44454300      1.79164400
H          -2.29508900     -0.38586000      0.16915600
H          -2.27465700      1.56411000      1.65018300
H          -0.42259900      1.45767100      1.85115700
