13
b3lypvdz=-174.360178439546 
C           5.54359100     -2.51045900      0.41912800
N           4.11731700     -2.58977300      0.13572800
C           3.38307100     -1.38914900      0.52058400
C           1.89189300     -1.55378300      0.24591100
H           6.03361800     -3.45871200      0.14489400
H           5.79779100     -2.28456800      1.48057400
H           5.99993400     -1.71659900     -0.19654800
H           3.72513200     -3.38673900      0.64317700
H           3.53949400     -1.10305200      1.58848900
H           3.78674400     -0.55025700     -0.07569100
H           1.33396700     -0.63963900      0.50503900
H           1.46683200     -2.37794500      0.84537700
H           1.71941800     -1.78952500     -0.81656400
