9
b3lypvdz=-117.824383355261 
C           1.05263100     -0.30789500      0.60078300
C           1.58158200      0.99578000      0.06972400
C           2.30577900      1.87576300      0.76832400
H           1.47540700     -1.15934100      0.03814800
H          -0.04645500     -0.36464200      0.49036100
H           1.30119400     -0.44402900      1.66623400
H           1.34687400      1.22134100     -0.97960700
H           2.66480900      2.80354900      0.31274200
H           2.56877800      1.69867500      1.81739000
