15
b3lypvdz=-308.440629705283 
O          -0.30518000     -0.42174200     -0.02238100
C          -1.51667300      0.01768800      0.45343800
C          -1.47504700      1.06224500      1.48908100
C          -2.50981900      1.63303100      2.12706800
C          -3.80707100     -2.11311500     -1.57088100
C          -2.67932900     -1.57190000     -1.06769400
C          -2.64925600     -0.53260800     -0.05977000
H           0.40146600      0.03755500      0.45202300
H          -0.46620400      1.40522800      1.76315600
H          -3.54801100      1.35477200      1.92608400
H          -2.33808800      2.40529500      2.87992800
H          -4.79655800     -1.78472800     -1.23574600
H          -3.77101800     -2.89904300     -2.32912400
H          -1.71082100     -1.93056800     -1.42999600
H          -3.60849000     -0.16670900      0.31491300
