10
b3lypvdz=-515.97348155133 
S           1.21082300      1.37476300     -1.62208200
C           1.10415700     -0.28558900      0.55847900
C           1.60767100      1.05865300      0.09690800
C           2.28056600      1.90775800      0.88685900
H           1.78202300      2.60530500     -1.69964900
H           1.54647600     -1.09888900     -0.04121900
H           0.00769900     -0.36182600      0.45197900
H           1.36698000     -0.44927100      1.61403900
H           2.64351100      2.87720600      0.53619600
H           2.49169500      1.64149200      1.92588800
