14
b3lypvdz=-270.361013970792 
C           1.03227300     -0.25605600      0.65005700
O          -0.15512300     -0.73418900      0.03302300
C          -1.31134400     -0.16024700      0.46169500
C          -3.91083200     -1.90026100     -1.55029100
C          -2.71519200     -1.53930800     -1.05067800
C          -2.51417200     -0.52150200     -0.03029700
H           1.86476500     -0.81167300      0.19919400
H           1.17686800      0.82475200      0.46241400
H           1.02450900     -0.43980800      1.74103700
H          -1.20767700      0.61754800      1.22878600
H          -4.83972400     -1.43475600     -1.20497600
H          -3.99497700     -2.67289700     -2.31854200
H          -1.81205600     -2.03064300     -1.42640700
H          -3.39161800     -0.00696000      0.37098400
