8
b3lypvdz=-79.764183105492 
C           3.38641700     -1.39907500      0.55258000
C           1.89818300     -1.54952500      0.21802000
H           3.94724900     -2.31760300      0.30904600
H           3.53638700     -1.19066200      1.62570600
H           3.84420600     -0.57218100     -0.01501800
H           1.33735300     -0.63099500      0.46155000
H           1.44039100     -2.37641600      0.78562100
H           1.74821300     -1.75794200     -0.85510500
