15
b3lypvdz=-308.433231399877 
O          -0.21943100     -0.68462800     -0.00928000
C          -1.35221500     -0.11069600      0.48878100
C          -3.89876600      1.16067600      1.49713900
C          -3.80074800      0.18391900      0.58055400
C          -3.81214400     -1.93620800     -1.60321000
C          -2.69366100     -1.47450900     -1.01728400
C          -2.58533500     -0.45181400      0.03352900
H           0.54350900     -0.31401100      0.45329000
H          -1.20807900      0.63684900      1.27552200
H          -3.03043700      1.63187900      1.96805000
H          -4.87736300      1.53166400      1.81035600
H          -4.73713700     -0.20720900      0.17266100
H          -4.81352400     -1.57982900     -1.34858800
H          -3.74993800     -2.70444600     -2.37822900
H          -1.73762900     -1.89153700     -1.34479100
