11
b3lypvdz=-231.086825558959 
O          -0.18346500     -0.59116700      0.09329800
C          -1.37762800     -0.06362500      0.50087200
C          -3.86123100     -1.92621400     -1.54473100
C          -2.69064600     -1.50729200     -1.03171600
C          -2.55247200     -0.47876900     -0.01093600
H           0.53004300     -0.15436600      0.57582700
H          -1.32984200      0.71749800      1.26830000
H          -4.81505100     -1.50419800     -1.21097500
H          -3.90018100     -2.70394000     -2.31149700
H          -1.76084500     -1.95683400     -1.39521700
H          -3.45938100     -0.00509400      0.37507500
