17
b3lypvdz=-309.641640336919 
C           2.00118300     -1.58382600      0.25862500
C           1.07623800     -0.41270800      0.57088200
C           1.58339100      0.89376800      0.01626500
C           1.99826700      1.92489000      0.75580100
O          -0.19893800     -0.75468400     -0.01135600
C          -1.28641800     -0.08616100      0.46361500
C          -2.52763400     -0.32846600      0.03086600
H           2.98639700     -1.41870800      0.72072000
H           1.56883400     -2.51552900      0.65377200
H           2.13489500     -1.69037100     -0.82971100
H           0.95428900     -0.31657800      1.66738600
H           1.60851400      0.94911600     -1.08003500
H           2.38429100      2.83976600      0.29933700
H           1.97237000      1.89230000      1.85119900
H          -1.07502400      0.66602700      1.23450100
H          -3.36229600      0.22760000      0.45669900
H          -2.72336000     -1.07513600     -0.74186800
