18
b3lyp631gd=-458.558464232 
O           2.20519000      1.53244800      0.07215400
H           2.70102000      1.79652000     -0.71694400
H           2.22974500      0.53566600      0.04834500
O           0.22485300     -2.67708500      0.07203800
H          -0.65055300     -2.19982400      0.04688500
H           0.20634600     -3.23963300     -0.71629500
O          -0.22493100      2.67733200     -0.07225300
H          -0.20643600      3.23976700      0.71615900
H           0.65076000      2.20057200     -0.04751200
O          -2.20540400     -1.53260500     -0.07225500
H          -2.23054100     -0.53583900     -0.04832800
H          -2.70086100     -1.79704500      0.71695600
O          -2.43050400      1.14402600      0.07214800
H          -2.90801700      1.44138800     -0.71639900
H          -1.57999000      1.66444400      0.04801500
O           2.43074000     -1.14409000     -0.07179100
H           2.90808300     -1.44107600      0.71700000
H           1.58049800     -1.66496200     -0.04792300
