21
b3lyp631gd=-535.004507218 
O           1.08017700      1.40713100     -1.31997400
H           0.95857500      0.44815800     -1.54372100
H           1.23404300      1.86748900     -2.15797100
O          -0.95440300     -1.87819600      0.24326100
H          -1.69832800     -1.31653100     -0.10374100
H          -0.65733800     -1.39999700      1.04810000
O           1.05155200     -1.29146500     -1.30785700
H           1.15122600     -1.95377300     -2.00714800
H           0.24548900     -1.58138400     -0.75340800
O           0.16758300     -0.04102700      2.04167900
H           1.08290200     -0.01786100      1.63220300
H           0.30341300     -0.04633100      3.00070300
O          -1.12596800      1.84187700      0.38974300
H          -0.39526900      1.87805700     -0.26476200
H          -0.73779900      1.31897400      1.12481900
O          -2.72805500     -0.03997100     -0.68104500
H          -2.20725700      0.73521200     -0.32580700
H          -3.57059400     -0.00700700     -0.20422400
O           2.47311300      0.00163300      0.68172800
H           2.31813500      0.79026600      0.12378600
H           2.25488200     -0.71746800      0.04920200
