9
b3lyp631gd=-229.267536564 
O           1.26783600     -0.94943900     -0.10457600
H           1.16737300      0.03277200     -0.05482500
H           1.67650700     -1.19204200      0.73982700
O           0.19423900      1.56539100      0.12189400
H           0.18150000      2.05265700     -0.71591600
H          -0.60926100      0.99065400      0.08245600
O          -1.46262300     -0.60907100     -0.09922000
H          -0.56917000     -1.02953600     -0.13629100
H          -1.84256300     -0.90955200      0.73995900
