18
mp2631gd=-457.27930332279 
O          -1.21803700      2.45240800      0.01330300
H          -1.37575100      2.98641500     -0.77972000
H          -0.23321600      2.34446900      0.03902200
O           2.73264400     -0.17136700      0.01338600
H           2.14677300     -0.97028800      0.03893800
H           3.27411000     -0.30169900     -0.77955100
O          -2.73267400      0.17138500     -0.01347000
H          -3.27405500      0.30175900      0.77951800
H          -2.14665200      0.97020300     -0.03901300
O           1.21802200     -2.45242300     -0.01333200
H           0.23321400     -2.34441000     -0.03905000
H           1.37571800     -2.98643700      0.77969000
O          -1.51471900     -2.28095600      0.01312300
H          -1.89836700     -2.68463900     -0.77983200
H          -1.91357400     -1.37407200      0.03873400
O           1.51469800      2.28097800     -0.01303800
H           1.89834100      2.68458700      0.77995800
H           1.91349400      1.37407400     -0.03870700
