21
mp2631gd=-533.51164868006 
O           1.09562400      1.53488400     -1.24012600
H           0.96601600      0.60401400     -1.54454900
H           1.20302500      2.06851700     -2.04237800
O          -0.97702500     -1.89752100      0.10562900
H          -1.73110500     -1.32597800     -0.18148700
H          -0.68220800     -1.49515000      0.94926500
O           1.04257700     -1.20253500     -1.46414700
H           1.11700000     -1.82584100     -2.20301400
H           0.25582800     -1.52007600     -0.91813100
O           0.20478900     -0.23038800      2.08747900
H           1.10262100     -0.17901900      1.65833400
H           0.37212900     -0.31803100      3.03851500
O          -1.10840100      1.81293400      0.57575900
H          -0.38023700      1.90517300     -0.07305300
H          -0.72399900      1.23098600      1.26394800
O          -2.79153100      0.04124100     -0.65423800
H          -2.25989900      0.77424700     -0.24710400
H          -3.65155900      0.08400500     -0.20990000
O           2.50833700     -0.07007300      0.64941900
H           2.37231300      0.77224000      0.17332700
H           2.29074600     -0.72313500     -0.04859800
