18
pbedef2svp=-326.48895971298 b3lypdef2svp=-326.70207221617 b3lypvdz=-326.95304072294
C      26.85000000     29.02100000      3.89800000
C      26.10000000     29.25300000      5.20200000
O      24.86500000     29.02400000      5.33000000
N      26.84900000     29.65600000      6.21700000
C      26.23500000     30.05800000      7.49700000
C      26.34400000     29.05000000      8.64500000
C      25.49100000     27.77100000      8.28700000
H      27.91400000     28.87800000      4.13600000
H      27.84300000     29.68800000      6.11500000
H      25.16500000     30.24200000      7.32000000
H      25.87900000     29.50700000      9.53100000
H      25.56300000     27.04000000      9.10600000
H      24.43900000     28.06000000      8.14500000
H      25.87600000     27.32100000      7.36000000
H      26.47150000     28.10150000      3.42760000
H      26.76460000     29.84380000      3.17300000
H      26.69170000     31.02500000      7.75460000
H      27.39250000     28.83400000      8.89820000
