14
pbedef2svp=-249.13555183588 b3lypdef2svp=-249.30264094619 b3lypvdz=-249.49568724195
N      27.94200000     22.44800000     21.64800000
C      29.01500000     21.65700000     22.28800000
C      24.51700000     21.47000000     20.03000000
O      25.24800000     21.30200000     21.19100000
C      23.20400000     21.90700000     20.19200000
H      27.17100000     21.98000000     21.21600000
H      29.58400000     22.29400000     22.98200000
H      27.98100000     23.44720000     21.64430000
H      29.69310000     21.25390000     21.52140000
H      28.53100000     20.84640000     22.85260000
H      26.12400000     21.00400000     20.97400000
H      22.79100000     22.04900000     21.18000000
H      24.94470000     21.32210000     19.02740000
H      22.59530000     22.10540000     19.29750000
