16
pbedef2svp=-362.29747305054 b3lypdef2svp=-362.52470038093 b3lypvdz=-362.80985550694
N      30.99100000     42.57100000     17.99800000
C      31.42200000     43.94000000     17.55300000
C      30.75500000     44.35100000     16.27700000
O      31.20700000     45.26800000     15.56600000
C      32.97900000     43.91800000     17.44500000
O      33.17400000     43.06700000     16.26500000
C      33.65700000     43.31900000     18.67200000
H      31.36100000     41.73700000     17.58800000
H      31.15100000     44.66200000     18.33700000
H      33.35300000     44.93600000     17.26300000
H      34.10300000     42.97400000     16.09100000
H      34.74800000     43.33300000     18.53200000
H      33.39400000     43.91000000     19.56100000
H      33.31800000     42.28100000     18.80800000
H      30.31060000     42.54650000     18.73040000
H      29.87810000     43.77600000     15.94460000
