12
pbedef2svp=-244.17464647799 b3lypdef2svp=-244.32794284518 b3lypvdz=-244.51514079926
C      35.61200000     30.57700000     28.04400000
N      35.04000000     30.25200000     26.73000000
C      34.33800000     29.10300000     26.65000000
N      34.11000000     28.43700000     27.76800000
N      34.01400000     28.65700000     25.45700000
H      36.60000000     30.10400000     28.14300000
H      34.94700000     30.20600000     28.83800000
H      35.16400000     30.85000000     25.93800000
H      33.66800000     27.54100000     27.73500000
H      34.38000000     28.82900000     28.64700000
H      33.57700000     27.75900000     25.49900000
H      35.71550000     31.66880000     28.12970000
