11
pbedef2svp=-267.79201394822
C      27.47500000     33.65100000     18.30400000
O      27.50700000     32.58700000     18.95800000
C      31.20000000     30.32900000     22.78000000
C      30.21000000     30.50900000     21.65000000
O      29.97800000     31.72600000     21.26900000
H      26.54180000     33.99370000     17.83310000
H      28.34830000     34.31300000     18.20840000
H      31.35500000     29.25000000     22.92500000
H      32.13930000     30.76110000     22.40440000
H      30.94270000     30.76780000     23.75530000
H      29.78370000     29.62250000     21.15760000
