8
pbedef2svp=-79.63982821924 b3lypdef2svp=-79.70509747222 b3lypvdz=-79.76277943771
C      34.50900000     26.07700000     19.36000000
C      33.20600000     26.31100000     20.12200000
H      34.78800000     25.01600000     19.43700000
H      35.30300000     26.69700000     19.80200000
H      32.92400000     27.37300000     20.07200000
H      32.40100000     25.69700000     19.69200000
H      34.38860000     26.34390000     18.29970000
H      33.38860000     26.01700000     21.16610000
