16
pbedef2svp=-362.33973439628 b3lypdef2svp=-362.56953598985 b3lypvdz=-362.85459873719
O      32.57600000     25.80200000      5.46100000
N      30.31000000     25.45800000      5.38400000
C      31.22000000     27.34100000      4.27500000
C      31.44000000     26.07900000      5.08000000
C      26.26600000     25.41300000      2.84200000
C      26.91300000     26.63900000      3.53100000
O      27.88600000     26.46300000      4.26300000
H      29.44600000     25.83300000      5.04800000
H      30.13900000     27.52500000      4.18300000
H      30.29490000     24.62620000      5.93880000
H      31.67060000     28.12700000      4.89880000
H      31.66200000     27.28350000      3.26940000
H      25.88000000     25.74300000      1.86700000
H      27.06770000     24.67930000      2.67180000
H      25.42290000     25.02360000      3.43160000
H      26.42360000     27.59660000      3.29980000
