20
pbedef2svp=-327.61759775902
C      25.14900000     31.60900000     14.98000000
C      26.31000000     30.59400000     14.96700000
C      22.82400000     34.51400000     17.78200000
C      23.97800000     35.12100000     18.12600000
N      23.14100000     29.18700000     19.24100000
C      24.10100000     30.14900000     19.19600000
O      24.19600000     30.94800000     18.28700000
H      24.28500000     31.20800000     15.53000000
H      27.23500000     31.16400000     14.79900000
H      26.34200000     30.12800000     15.96300000
H      24.87990000     31.91780000     13.95910000
H      25.54030000     32.51210000     15.47110000
H      26.29540000     29.77810000     14.22940000
H      22.56500000     33.48000000     17.95500000
H      22.19620000     35.27230000     17.29120000
H      24.88150000     34.71460000     18.60410000
H      23.87700000     36.18030000     17.84720000
H      23.12400000     28.54900000     20.01100000
H      22.45120000     29.10210000     18.52200000
H      24.77440000     30.16420000     20.06570000
