8
pbedef2svp=-79.63862531217 b3lypdef2svp=-79.7037793629 b3lypvdz=-79.76143215147
C      29.21300000     19.69700000      5.50600000
C      29.72800000     19.75500000      4.06000000
H      30.07700000     19.54500000      6.16900000
H      28.53000000     18.83800000      5.59000000
H      30.51000000     20.52800000      4.02300000
H      30.17100000     18.77400000      3.83200000
H      28.67550000     20.59380000      5.84800000
H      29.00780000     19.98130000      3.25990000
