18
pbedef2svp=-326.47387846306 b3lypdef2svp=-326.68703771924 b3lypvdz=-326.93805915132
C      36.35100000     33.61300000      7.83800000
N      39.65500000     34.33500000     11.28500000
C      39.80800000     32.99400000      9.23300000
C      39.83700000     34.27100000      9.99500000
O      40.16400000     35.32300000      9.34500000
C      38.61500000     32.80100000      8.32000000
C      37.22000000     32.82200000      8.82700000
H      35.32500000     33.67300000      8.23000000
H      36.76200000     34.62700000      7.73100000
H      39.48700000     33.47600000     11.76900000
H      40.65200000     33.09000000      8.53400000
H      38.67800000     33.59500000      7.56100000
H      38.75200000     31.82100000      7.83900000
H      36.84100000     31.79300000      8.91200000
H      37.19200000     33.30600000      9.81400000
H      36.33000000     33.12780000      6.85100000
H      39.66950000     35.17360000     11.82950000
H      40.03650000     32.07410000      9.79130000
