18
pbedef2svp=-289.32318603946 b3lypdef2svp=-289.52158490284 b3lypvdz=-289.74158709947
C      23.81200000     34.03100000      5.67700000
C      24.62000000     34.77800000      4.85300000
N      26.21400000     32.09700000      8.77100000
C      26.77200000     33.43600000      9.19700000
C      25.69500000     34.49800000      8.94600000
C      25.28800000     34.60900000      7.49900000
C      24.14700000     33.96600000      7.03800000
H      22.94800000     33.51100000      5.29000000
H      24.31900000     34.89900000      3.82300000
H      25.36900000     31.73600000      9.16600000
H      27.66100000     33.67200000      8.59400000
H      24.80600000     34.23900000      9.53900000
H      26.08400000     35.47300000      9.27400000
H      23.51900000     33.41800000      7.72500000
H      25.55390000     35.25990000      5.17790000
H      26.72330000     31.58690000      8.07790000
H      27.04930000     33.38190000     10.26010000
H      25.94760000     35.18220000      6.83090000
