14
pbedef2svp=-158.04383962852 b3lypdef2svp=-158.16918710128 b3lypvdz=-158.28659120623
C      20.36900000     28.64800000     14.00100000
C      19.59300000     27.46500000     14.02100000
C      21.63700000     28.92300000     10.35300000
C      21.41900000     30.25300000      9.62000000
H      20.22700000     29.39700000     13.23600000
H      18.91100000     27.27600000     13.20500000
H      21.12220000     28.77800000     14.79200000
H      19.65960000     26.73090000     14.83750000
H      22.57800000     28.46500000     10.01500000
H      21.68500000     29.10200000     11.43700000
H      20.41000000     30.65000000      9.80700000
H      20.79700000     28.24970000     10.12700000
H      21.61010000     30.08890000      8.54920000
H      22.19030000     30.94610000      9.98680000
