13
pbedef2svp=-323.0780029409 b3lypdef2svp=-323.28081674798 b3lypvdz=-323.53660243281
C      36.33400000     31.74200000     23.08700000
O      35.57400000     32.61800000     23.48300000
N      34.93000000     34.38400000     25.45100000
C      35.16100000     34.17400000     26.89600000
C      34.23900000     35.35300000     24.97900000
O      33.70700000     36.19700000     25.72800000
H      37.33660000     31.66700000     23.53330000
H      36.05440000     31.00370000     22.32100000
H      35.33500000     33.73400000     24.80800000
H      34.63100000     34.92600000     27.50000000
H      36.24860000     34.26190000     27.03500000
H      34.84230000     33.15910000     27.17590000
H      34.17030000     35.43990000     23.88460000
