9
pbedef2svp=-208.80672573667 b3lypdef2svp=-208.93676734771 b3lypvdz=-209.10025428243
C      41.46100000     30.75100000     19.59400000
C      40.16800000     30.02600000     19.91800000
O      39.26400000     30.66200000     20.52100000
N      40.05900000     28.75800000     19.60700000
H      42.11200000     30.14800000     18.94400000
H      41.25790000     31.74700000     19.17360000
H      41.97880000     31.02680000     20.52450000
H      39.21520000     28.25660000     19.79860000
H      40.71650000     28.18600000     19.11660000
