15
pbedef2svp=-287.2066652891 b3lypdef2svp=-287.39464693857 b3lypvdz=-287.61731405381
N      26.33500000     27.77000000      3.25800000
C      26.85000000     29.02100000      3.89800000
C      26.73300000     30.14800000      2.90500000
C      26.88200000     31.54600000      3.40900000
C      26.78600000     32.56200000      2.27000000
O      27.78300000     33.16000000      1.87000000
H      25.55800000     27.80400000      2.63000000
H      27.91400000     28.87800000      4.13600000
H      27.50800000     29.99200000      2.14000000
H      25.73900000     30.07200000      2.44000000
H      26.08500000     31.75000000      4.13900000
H      27.86200000     31.64800000      3.89800000
H      26.77990000     26.89940000      3.46810000
H      26.30800000     29.18870000      4.84040000
H      25.76610000     32.70450000      1.88340000
