11
pbedef2svp=-264.03198204172 b3lypdef2svp=-264.19268428773 b3lypvdz=-264.39944475759
N      32.47800000     30.91700000     22.26900000
C      31.20000000     30.32900000     22.78000000
C      30.21000000     30.50900000     21.65000000
O      29.97800000     31.72600000     21.26900000
N      29.69400000     29.43600000     21.05400000
H      32.49800000     31.87600000     21.98800000
H      31.35500000     29.25000000     22.92500000
H      29.93800000     28.52400000     21.38400000
H      33.31260000     30.37010000     22.20290000
H      30.94270000     30.76780000     23.75530000
H      29.06640000     29.52830000     20.28090000
