16
pbedef2svp=-304.43382763842 b3lypdef2svp=-304.63095554597 b3lypvdz=-304.86555775122
N      27.77700000     28.58500000     26.73900000
C      28.26200000     27.57600000     26.02000000
O      29.18900000     26.84000000     26.33500000
C      29.41200000     30.79600000     24.59800000
C      29.27100000     31.31400000     26.01600000
N      27.87500000     31.31700000     26.44300000
H      28.17600000     28.80100000     27.63000000
H      27.01300000     29.12700000     26.38800000
H      27.74850000     27.41670000     25.06040000
H      28.75300000     31.37500000     23.93500000
H      29.12000000     29.73600000     24.57000000
H      29.85100000     30.66900000     26.69200000
H      29.66200000     32.34100000     26.06300000
H      27.44700000     30.43800000     26.65100000
H      30.45110000     30.89380000     24.25040000
H      27.32000000     32.14310000     26.54080000
