12
pbedef2svp=-193.91985686314
C      23.72700000     35.13100000     12.72200000
C      22.69900000     34.26700000     11.98500000
C      25.69800000     32.87600000     15.66900000
O      26.15800000     33.73000000     14.89400000
H      23.36200000     36.16700000     12.78000000
H      23.87600000     34.73700000     13.73800000
H      24.68200000     35.10900000     12.17700000
H      21.74500000     34.28200000     12.53300000
H      23.05330000     33.22760000     11.92010000
H      22.54660000     34.58290000     10.94240000
H      25.30670000     31.97290000     15.17790000
H      25.63210000     32.93510000     16.76540000
