19
pbedef2svp=-310.42739990551 b3lypdef2svp=-310.63839729689 b3lypvdz=-310.8770096024
C      37.47100000     27.39100000     10.66800000
C      37.44100000     28.88200000     11.05200000
O      38.02000000     29.77200000     10.38200000
C      36.19300000     27.05800000      9.91100000
C      36.15300000     25.62000000      9.40900000
C      34.75800000     25.28000000      8.90000000
C      34.79300000     24.26400000      7.76700000
H      38.32600000     27.22700000      9.99500000
H      35.33700000     27.21800000     10.58200000
H      36.11200000     27.73300000      9.04600000
H      36.87800000     25.50100000      8.59000000
H      36.41500000     24.94000000     10.23300000
H      34.16900000     24.86400000      9.73100000
H      34.27900000     26.20100000      8.53600000
H      35.65600000     23.59600000      7.90900000
H      33.86500000     23.67300000      7.78500000
H      37.59160000     26.75970000     11.56070000
H      36.92150000     29.11950000     11.99210000
H      34.88200000     24.76430000      6.79140000
