21
pbedef2svp=-274.50502189225
C      30.09100000     34.39300000      5.07800000
C      29.42000000     35.75600000      5.11900000
C      26.13600000     35.34600000      6.64000000
C      25.81000000     35.39200000      5.26700000
C      25.69500000     34.49800000      8.94600000
C      25.28800000     34.60900000      7.49900000
C      24.14700000     33.96600000      7.03800000
H      29.47000000     33.64700000      4.56000000
H      29.15200000     36.06400000      4.09800000
H      28.51000000     35.69800000      5.73500000
H      30.11200000     36.49200000      5.55400000
H      30.37980000     34.03800000      6.07830000
H      31.09520000     34.48230000      4.63800000
H      27.00600000     35.85800000      7.02300000
H      26.45800000     35.88500000      4.55700000
H      24.80600000     34.23900000      9.53900000
H      26.08400000     35.47300000      9.27400000
H      23.51900000     33.41800000      7.72500000
H      24.87610000     34.91010000      4.94210000
H      26.46770000     33.73610000      9.12610000
H      23.88440000     34.01700000      5.97100000
