16
pbedef2svp=-362.32476740307
C      26.91300000     26.63900000      3.53100000
O      27.88600000     26.46300000      4.26300000
C      31.22000000     27.34100000      4.27500000
C      31.44000000     26.07900000      5.08000000
O      32.57600000     25.80200000      5.46100000
C      31.82700000     27.26200000      2.89400000
N      30.31000000     25.45800000      5.38400000
H      26.45330000     25.76780000      3.04140000
H      26.42360000     27.59660000      3.29980000
H      30.13900000     27.52500000      4.18300000
H      32.92200000     27.30900000      2.98900000
H      31.53900000     26.30300000      2.43900000
H      29.44600000     25.83300000      5.04800000
H      31.67060000     28.12700000      4.89880000
H      31.49770000     28.07680000      2.23250000
H      30.29490000     24.62620000      5.93880000
