17
pbedef2svp=-288.45025143932
C      27.57400000     18.19200000     14.56300000
C      27.29900000     17.05500000     13.53300000
N      31.51000000     18.93600000     12.85200000
C      30.79600000     19.08300000     10.56600000
C      30.49100000     19.16200000     12.04000000
O      29.36700000     19.52300000     12.44100000
H      28.56000000     18.63600000     14.36100000
H      27.28300000     17.48700000     12.52200000
H      27.52640000     17.81830000     15.59650000
H      26.79760000     18.96560000     14.46990000
H      26.28680000     16.72790000     13.81300000
H      27.97910000     16.19060000     13.55110000
H      32.38900000     18.66700000     12.45900000
H      31.64900000     18.41000000     10.39300000
H      31.43240000     19.02460000     13.84500000
H      29.91060000     18.72500000     10.02010000
H      31.04840000     20.08980000     10.20180000
