11
pbedef2svp=-321.90709147827 b3lypdef2svp=-322.10133278248 b3lypvdz=-322.35714726399
C      27.99400000     23.78100000     21.64300000
O      28.90400000     24.44400000     22.09800000
N      27.94200000     22.44800000     21.64800000
C      29.01500000     21.65700000     22.28800000
C      29.94200000     21.10600000     21.24000000
O      29.47000000     20.67700000     20.19000000
H      27.17100000     21.98000000     21.21600000
H      29.58400000     22.29400000     22.98200000
H      27.14870000     24.31660000     21.18630000
H      28.53100000     20.84640000     22.85260000
H      31.02640000     21.09260000     21.42400000
