9
pbedef2svp=-208.79035302094 b3lypdef2svp=-208.92106569853 b3lypvdz=-209.08403782207
N      25.62100000     32.94500000     16.95000000
C      26.17900000     34.12700000     17.65000000
C      25.69800000     32.87600000     15.66900000
O      26.15800000     33.73000000     14.89400000
H      25.18900000     32.20800000     17.47000000
H      26.36900000     34.95900000     16.95600000
H      27.11220000     33.78430000     18.12090000
H      25.49380000     34.43800000     18.45240000
H      25.30670000     31.97290000     15.17790000
