18
pbedef2svp=-326.4787452615 b3lypdef2svp=-326.69236641343 b3lypvdz=-326.94292704698
C      32.99500000     35.88300000      9.93400000
C      29.54200000     39.02000000     10.65300000
C      30.49400000     38.26100000      9.72900000
O      30.84900000     38.85000000      8.70600000
C      28.11300000     39.04900000     10.01500000
N      30.79500000     37.01500000     10.09500000
C      31.72000000     36.28900000      9.17600000
H      33.82000000     36.38500000      9.40700000
H      29.47700000     38.47800000     11.60800000
H      28.15100000     39.62800000      9.08100000
H      30.42700000     36.59700000     10.92600000
H      32.03600000     37.01200000      8.41000000
H      33.21760000     34.80790000      9.86670000
H      33.07410000     36.22850000     10.97530000
H      30.00500000     40.00260000     10.82670000
H      27.48210000     39.55870000     10.75800000
H      27.73750000     38.03760000      9.80040000
H      31.16040000     35.50050000      8.65150000
