14
pbedef2svp=-158.08972599356 b3lypdef2svp=-158.21050554253 b3lypvdz=-158.32631348542
C      24.94200000     28.80700000     13.95200000
C      25.14900000     31.60900000     14.98000000
C      26.31000000     30.59400000     14.96700000
C      26.29000000     29.48000000     13.96000000
H      24.94200000     27.99400000     13.21100000
H      24.73300000     28.39300000     14.95000000
H      24.16700000     29.54200000     13.69000000
H      24.28500000     31.20800000     15.53000000
H      27.23500000     31.16400000     14.79900000
H      26.34200000     30.12800000     15.96300000
H      26.46700000     29.91100000     12.96300000
H      24.87990000     31.91780000     13.95910000
H      25.54030000     32.51210000     15.47110000
H      27.07870000     28.73780000     14.15240000
