15
pbedef2svp=-283.40678391214 b3lypdef2svp=-283.58822766408 b3lypvdz=-283.8044603383
C      41.60800000     31.44400000     30.98900000
C      41.89600000     30.08000000     30.45600000
N      43.31100000     29.73500000     30.56300000
C      44.17400000     29.90500000     29.55400000
N      43.75400000     30.31200000     28.35600000
N      45.47700000     29.72600000     29.76300000
H      42.35500000     31.68200000     31.76000000
H      40.60500000     31.43800000     31.44000000
H      41.30800000     29.34500000     31.02600000
H      41.60100000     30.04400000     29.39700000
H      43.64900000     29.35700000     31.42500000
H      44.41500000     30.48000000     27.62500000
H      42.77800000     30.44900000     28.18900000
H      46.01900000     29.93000000     28.94800000
H      41.63910000     32.22830000     30.21840000
