13
pbedef2svp=-231.97386159492 b3lypdef2svp=-232.12960843744 b3lypvdz=-232.3094349186
C      28.76200000     29.57300000     19.90600000
C      27.33100000     29.31700000     20.36400000
O      27.10100000     28.34600000     21.09700000
C      29.15100000     28.65500000     18.75500000
C      30.41600000     28.91200000     17.98000000
H      28.81600000     30.60900000     19.54100000
H      29.23500000     27.64100000     19.17300000
H      28.32300000     28.68600000     18.03100000
H      31.24500000     29.08800000     18.68100000
H      29.45240000     29.47150000     20.75640000
H      26.59060000     30.07400000     20.06620000
H      30.64830000     28.03280000     17.36110000
H      30.26450000     29.81400000     17.36890000
