15
pbedef2svp=-378.36945484197
C      20.14200000     21.59000000     15.14900000
O      19.49900000     22.64500000     15.32100000
N      19.99300000     20.88400000     14.04900000
N      24.24000000     19.23300000     12.24600000
C      22.92400000     18.58300000     12.02500000
C      24.24100000     20.43600000     12.85700000
O      23.26400000     20.95100000     13.32900000
H      20.50600000     20.03400000     13.92400000
H      20.82360000     21.26920000     15.95060000
H      19.36490000     21.20080000     13.33830000
H      25.09100000     18.79700000     11.95400000
H      22.28300000     19.29200000     11.48000000
H      22.41860000     18.33650000     12.97040000
H      23.02070000     17.68240000     11.40090000
H      25.21610000     20.92100000     13.01190000
