14
pbedef2svp=-361.13639877321 b3lypdef2svp=-361.35719964253 b3lypvdz=-361.64235528061
C      29.66400000     39.83900000     17.43400000
O      28.85000000     40.56500000     16.85900000
N      30.13200000     40.06900000     18.64200000
C      29.60700000     41.18000000     19.46700000
C      30.07500000     42.53800000     18.98400000
O      29.58600000     43.57000000     19.48300000
C      29.91900000     40.89000000     20.93800000
H      30.85500000     39.48300000     19.00900000
H      28.51100000     41.16800000     19.37000000
H      30.99700000     40.68600000     21.01500000
H      29.67500000     41.79500000     21.51400000
H      30.06730000     38.97920000     16.87900000
H      30.82350000     42.56500000     18.17830000
H      29.38740000     40.04640000     21.40240000
