10
pbedef2svp=-155.63159421078 b3lypdef2svp=-155.74288129584 b3lypvdz=-155.86225547305
C      23.81200000     34.03100000      5.67700000
C      25.81000000     35.39200000      5.26700000
C      24.62000000     34.77800000      4.85300000
C      24.14700000     33.96600000      7.03800000
H      22.94800000     33.51100000      5.29000000
H      26.45800000     35.88500000      4.55700000
H      24.31900000     34.89900000      3.82300000
H      23.51900000     33.41800000      7.72500000
H      26.06400000     35.35620000      6.33670000
H      25.05090000     34.47540000      7.40320000
