10
pbedef2svp=-192.74345844407 b3lypdef2svp=-192.87088185269 b3lypvdz=-193.02216514486
C      25.14900000     31.60900000     14.98000000
C      25.69800000     32.87600000     15.66900000
O      26.15800000     33.73000000     14.89400000
C      26.31000000     30.59400000     14.96700000
H      24.28500000     31.20800000     15.53000000
H      27.23500000     31.16400000     14.79900000
H      26.34200000     30.12800000     15.96300000
H      24.87990000     31.91780000     13.95910000
H      25.63210000     32.93510000     16.76540000
H      26.29540000     29.77810000     14.22940000
