22
pbedef2svp=-237.68469287997
C      20.36900000     28.64800000     14.00100000
C      19.59300000     27.46500000     14.02100000
C      23.37600000     25.64500000     11.40900000
C      22.65000000     24.51600000     12.17200000
C      21.63700000     28.92300000     10.35300000
C      21.41900000     30.25300000      9.62000000
H      20.22700000     29.39700000     13.23600000
H      18.91100000     27.27600000     13.20500000
H      21.12220000     28.77800000     14.79200000
H      19.65960000     26.73090000     14.83750000
H      24.39600000     25.75900000     11.80600000
H      23.42500000     25.39200000     10.34000000
H      22.82500000     26.58800000     11.53800000
H      23.21600000     23.58600000     12.01300000
H      21.61880000     24.33800000     11.83300000
H      22.65850000     24.73010000     13.25090000
H      22.57800000     28.46500000     10.01500000
H      21.68500000     29.10200000     11.43700000
H      20.41000000     30.65000000      9.80700000
H      20.79700000     28.24970000     10.12700000
H      21.61010000     30.08890000      8.54920000
H      22.19030000     30.94610000      9.98680000
