15
pbedef2svp=-378.3590756422 b3lypdef2svp=-378.58956606803 b3lypvdz=-378.88642047495
N      27.36100000     17.95900000      8.55900000
C      28.05400000     16.83500000      9.21000000
C      29.25800000     17.31800000      9.98400000
O      29.93000000     16.47700000     10.60600000
C      28.52300000     15.82000000      8.18200000
O      28.94600000     16.44500000      6.96700000
N      29.59900000     18.59900000      9.82800000
H      27.51100000     18.13900000      7.58700000
H      27.36300000     16.33700000      9.90600000
H      29.36700000     15.25300000      8.60200000
H      27.69400000     15.13200000      7.95800000
H      29.23100000     15.78000000      6.35100000
H      29.07000000     19.20900000      9.23800000
H      26.74090000     18.54350000      9.08230000
H      30.40390000     18.92440000     10.32420000
