10
pbedef2svp=-192.74772898783 b3lypdef2svp=-192.87558674755 b3lypvdz=-193.02626570561
C      37.56100000     18.85100000     18.08200000
O      37.75800000     18.02400000     17.19500000
C      35.66700000     20.38300000     17.44700000
C      37.12800000     20.29300000     17.87200000
H      35.07400000     19.98200000     18.28200000
H      35.55700000     19.72700000     16.57100000
H      37.75600000     20.74400000     17.09000000
H      37.26100000     20.84600000     18.81300000
H      37.61960000     18.63070000     19.15810000
H      35.20970000     21.34580000     17.17520000
