9
pbedef2svp=-208.75034830015 b3lypdef2svp=-208.88142186318 b3lypvdz=-209.04642504328
C      38.81700000     28.02000000     19.88900000
C      38.42100000     28.04800000     21.34100000
O      37.21300000     28.03600000     21.70400000
N      40.05900000     28.75800000     19.60700000
H      38.00200000     28.46900000     19.30300000
H      39.01380000     27.01710000     19.48230000
H      39.22070000     28.08320000     22.09540000
H      40.14220000     29.72580000     19.84440000
H      40.71650000     28.18600000     19.11660000
