10
pbedef2svp=-283.86158020213 b3lypdef2svp=-284.03687290558 b3lypvdz=-284.2634166745
C      26.54100000     18.73200000      9.25100000
O      26.33300000     18.53600000     10.45700000
N      24.24000000     19.23300000     12.24600000
C      24.24100000     20.43600000     12.85700000
O      23.26400000     20.95100000     13.32900000
H      26.02170000     19.52920000      8.69890000
H      27.22310000     18.08900000      8.67540000
H      25.09100000     18.79700000     11.95400000
H      23.35340000     18.79510000     12.09710000
H      25.21610000     20.92100000     13.01190000
