11
pbedef2svp=-118.86663748311 b3lypdef2svp=-118.95967181614 b3lypvdz=-119.04665863358
C      38.69300000     34.10600000     17.59500000
C      38.47100000     35.54600000     17.04500000
C      36.95800000     35.74600000     16.68000000
H      38.14400000     33.41300000     16.94100000
H      38.76200000     36.27900000     17.81200000
H      39.08700000     35.69300000     16.14500000
H      36.80500000     36.76400000     16.29200000
H      36.66600000     35.01400000     15.91300000
H      36.34200000     35.60000000     17.57900000
H      39.75750000     33.83520000     17.53530000
H      38.30300000     33.98190000     18.61600000
