12
pbedef2svp=-248.02538591474 b3lypdef2svp=-248.18362196912 b3lypvdz=-248.37594572961
N      31.51000000     18.93600000     12.85200000
C      31.39800000     19.06400000     14.28600000
C      32.49200000     18.19300000     14.99500000
C      30.49100000     19.16200000     12.04000000
O      29.36700000     19.52300000     12.44100000
H      32.38900000     18.66700000     12.45900000
H      30.40500000     18.73500000     14.62700000
H      32.40300000     18.31600000     16.08500000
H      31.53670000     20.12320000     14.54850000
H      33.44980000     18.59970000     14.63820000
H      32.39220000     17.12890000     14.73480000
H      30.71360000     19.10430000     10.96430000
