16
pbedef2svp=-325.21168062716
C      22.94500000     21.95100000     17.78500000
C      24.27200000     21.54400000     17.64400000
C      22.43700000     22.15700000     19.06500000
C      23.20400000     21.90700000     20.19200000
N      26.58500000     20.06300000     13.37800000
C      26.48200000     19.28000000     14.43200000
O      25.60900000     19.38800000     15.28700000
H      24.69800000     21.42900000     16.65800000
H      21.42600000     22.51800000     19.18200000
H      22.79100000     22.04900000     21.18000000
H      22.31860000     22.17170000     16.90810000
H      24.88530000     21.34030000     18.53410000
H      24.24060000     21.56200000     20.06410000
H      27.36400000     19.94300000     12.76300000
H      25.91220000     20.77310000     13.17030000
H      27.25840000     18.50640000     14.52510000
