13
pbedef2svp=-323.0993434803
C      22.22900000     18.24400000     13.32500000
O      20.96300000     18.25300000     13.39500000
N      22.99700000     17.97800000     14.36600000
C      27.57400000     18.19200000     14.56300000
C      26.48200000     19.28000000     14.43200000
O      25.60900000     19.38800000     15.28700000
H      23.99100000     18.00600000     14.25900000
H      22.73440000     18.49050000     12.37960000
H      22.60770000     17.74940000     15.25830000
H      28.56000000     18.63600000     14.36100000
H      27.52640000     17.81830000     15.59650000
H      27.37990000     17.38960000     13.83610000
H      26.56800000     19.93400000     13.55170000
