11
pbedef2svp=-118.86064790578 b3lypdef2svp=-118.95372182161 b3lypvdz=-119.04040854341
C      39.08000000     36.94100000     27.40600000
C      39.50200000     37.34000000     26.00200000
C      38.66800000     35.50200000     27.68000000
H      38.22400000     37.57700000     27.67600000
H      39.92700000     37.16400000     28.07100000
H      40.56300000     37.08500000     25.86300000
H      39.13700000     34.87600000     26.90700000
H      38.91040000     36.83880000     25.22170000
H      39.38330000     38.42890000     25.90130000
H      37.57780000     35.42420000     27.55620000
H      38.96280000     35.08940000     28.65620000
