15
pbedef2svp=-233.1655954999
C      35.71500000     26.20300000     17.17200000
C      34.34300000     26.44500000     17.89800000
C      35.03100000     21.72200000     17.06900000
C      35.61500000     22.19000000     15.75900000
O      36.53200000     23.04600000     15.72400000
H      35.94800000     25.12800000     17.16500000
H      36.51400000     26.74800000     17.69600000
H      34.05700000     27.50400000     17.81100000
H      33.56400000     25.81600000     17.44200000
H      35.62940000     26.57130000     16.13900000
H      34.46340000     26.17810000     18.95830000
H      35.24600000     22.46200000     17.85400000
H      33.94390000     21.57830000     16.98180000
H      35.48830000     20.75920000     17.34080000
H      35.21920000     21.71940000     14.84690000
