15
pbedef2svp=-287.21166121468 b3lypdef2svp=-287.39897216086 b3lypvdz=-287.62152484455
N      36.00000000     30.86000000     22.17200000
C      34.73800000     30.87500000     21.47300000
C      34.87600000     30.23700000     20.06600000
C      36.01200000     30.86000000     19.22100000
C      36.08300000     30.19400000     17.87500000
O      35.04800000     29.70200000     17.39300000
H      36.65600000     30.13900000     21.94800000
H      34.44500000     31.92400000     21.31900000
H      35.08000000     29.16300000     20.18800000
H      33.92600000     30.37100000     19.52700000
H      35.81700000     31.93400000     19.08500000
H      36.97000000     30.72500000     19.74400000
H      36.25420000     31.53120000     22.86830000
H      33.90320000     30.37660000     21.98740000
H      37.04120000     30.13710000     17.33770000
