10
pbedef2svp=-283.84754684776
C      31.90100000     34.91000000     22.72800000
O      32.19000000     33.69600000     22.63500000
N      29.69400000     29.43600000     21.05400000
C      30.21000000     30.50900000     21.65000000
O      29.97800000     31.72600000     21.26900000
H      30.88240000     35.23880000     22.47440000
H      32.62350000     35.68200000     23.03140000
H      29.93800000     28.52400000     21.38400000
H      29.06640000     29.52830000     20.28090000
H      30.92970000     30.37810000     22.47150000
