8
pbedef2svp=-79.63821892461 b3lypdef2svp=-79.70336517066 b3lypvdz=-79.76100681495
C      30.09100000     34.39300000      5.07800000
C      29.42000000     35.75600000      5.11900000
H      29.47000000     33.64700000      4.56000000
H      29.15200000     36.06400000      4.09800000
H      28.51000000     35.69800000      5.73500000
H      30.11200000     36.49200000      5.55400000
H      30.37980000     34.03800000      6.07830000
H      31.09520000     34.48230000      4.63800000
