5
pbedef2svp=-40.41444725825 b3lypdef2svp=-40.45132414932 b3lypvdz=-40.47987156014
C      24.63900000     31.42600000     21.28600000
H      24.67100000     32.30400000     20.62400000
H      24.91290000     30.55510000     20.67240000
H      25.35980000     31.60060000     22.09840000
H      23.60990000     31.34340000     21.66570000
