17
pbedef2svp=-379.49731708384
C      26.54100000     18.73200000      9.25100000
O      26.33300000     18.53600000     10.45700000
N      22.99700000     17.97800000     14.36600000
C      22.41800000     17.63800000     15.69300000
N      26.58500000     20.06300000     13.37800000
C      26.48200000     19.28000000     14.43200000
O      25.60900000     19.38800000     15.28700000
H      26.02170000     19.52920000      8.69890000
H      27.22310000     18.08900000      8.67540000
H      23.99100000     18.00600000     14.25900000
H      21.81600000     16.72700000     15.56300000
H      22.41550000     18.17940000     13.57780000
H      21.73010000     18.42720000     16.03050000
H      23.17780000     17.41440000     16.45640000
H      27.36400000     19.94300000     12.76300000
H      25.91220000     20.77310000     13.17030000
H      27.25840000     18.50640000     14.52510000
