15
pbedef2svp=-378.38190691983 b3lypdef2svp=-378.61508597438 b3lypvdz=-378.91203677225
N      24.24000000     19.23300000     12.24600000
C      24.24100000     20.43600000     12.85700000
O      23.26400000     20.95100000     13.32900000
C      26.54100000     18.73200000      9.25100000
O      26.33300000     18.53600000     10.45700000
N      27.36100000     17.95900000      8.55900000
C      28.05400000     16.83500000      9.21000000
H      25.09100000     18.79700000     11.95400000
H      23.35340000     18.79510000     12.09710000
H      25.21610000     20.92100000     13.01190000
H      27.51100000     18.13900000      7.58700000
H      27.36300000     16.33700000      9.90600000
H      26.02170000     19.52920000      8.69890000
H      28.93070000     17.18670000      9.77360000
H      28.39370000     16.09990000      8.46550000
