12
pbedef2svp=-248.03776517718 b3lypdef2svp=-248.19592743799 b3lypvdz=-248.38862544508
N      34.00700000     23.74500000     13.25000000
C      35.59000000     21.94500000     13.30200000
C      35.23800000     23.38200000     12.92000000
O      36.06600000     24.10900000     12.33300000
C      35.06400000     20.95700000     12.25500000
H      33.39700000     23.08600000     13.69000000
H      36.68700000     21.87000000     13.28900000
H      35.45300000     19.95000000     12.46600000
H      33.96400000     20.93800000     12.28200000
H      33.68200000     24.67210000     13.06350000
H      35.25210000     21.70450000     14.32080000
H      35.40590000     21.28740000     11.26310000
