7
pbedef2svp=-153.50670379994 b3lypdef2svp=-153.60626738564 b3lypvdz=-153.7277861043
C      24.51700000     21.47000000     20.03000000
O      25.24800000     21.30200000     21.19100000
C      25.05200000     21.28500000     18.77600000
H      26.12400000     21.00400000     20.97400000
H      26.07000000     20.94100000     18.66600000
H      23.48040000     21.81500000     20.15790000
H      24.43870000     21.48870000     17.88590000
