9
pbedef2svp=-208.80952074857 b3lypdef2svp=-208.94037247078 b3lypvdz=-209.10372025415
C      39.91900000     32.85400000     23.84000000
C      40.76000000     34.03600000     23.39400000
O      41.97500000     34.00800000     23.62400000
N      40.14000000     35.00700000     22.77500000
H      39.79500000     32.89900000     24.93200000
H      40.44000000     31.92400000     23.56800000
H      40.65400000     35.80100000     22.45000000
H      39.15200000     34.95500000     22.62700000
H      38.92460000     32.85400000     23.36960000
