19
pbedef2svp=-380.70237734283
O      33.77800000     18.73900000     14.51600000
C      32.49200000     18.19300000     14.99500000
N      33.54800000     21.52600000     16.95000000
C      35.03100000     21.72200000     17.06900000
N      31.69700000     18.31100000     20.40600000
C      32.12800000     19.36400000     19.75000000
O      32.54600000     19.31700000     18.55800000
H      34.49400000     18.25400000     14.90900000
H      32.40300000     18.31600000     16.08500000
H      31.72450000     18.80410000     14.49760000
H      32.39220000     17.12890000     14.73480000
H      33.14600000     20.63400000     17.15600000
H      35.24600000     22.46200000     17.85400000
H      32.95960000     22.28290000     16.66570000
H      35.45680000     22.06320000     16.11390000
H      35.48830000     20.75920000     17.34080000
H      31.43900000     18.43200000     21.36400000
H      31.60950000     17.39610000     20.01200000
H      32.22500000     20.30980000     20.30330000
