10
pbedef2svp=-134.87144683698 b3lypdef2svp=-134.96870520053 b3lypvdz=-135.06917111092
C      38.52800000     32.85400000     23.18200000
N      38.41900000     30.37300000     23.34100000
C      37.73800000     31.63700000     23.71200000
H      38.63400000     32.78100000     22.09000000
H      37.99600000     33.78200000     23.43800000
H      38.91700000     30.30600000     22.47600000
H      37.65300000     31.71100000     24.80600000
H      39.52240000     32.85400000     23.65240000
H      38.37820000     29.58820000     23.95940000
H      36.73540000     31.71200000     23.26570000
