12
pbedef2svp=-193.95200161471 b3lypdef2svp=-194.08547557741 b3lypvdz=-194.23514063149
O      33.17400000     43.06700000     16.26500000
C      33.65700000     43.31900000     18.67200000
C      31.42200000     43.94000000     17.55300000
C      32.97900000     43.91800000     17.44500000
H      34.10300000     42.97400000     16.09100000
H      34.74800000     43.33300000     18.53200000
H      33.39400000     43.91000000     19.56100000
H      33.31800000     42.28100000     18.80800000
H      31.15100000     44.66200000     18.33700000
H      33.35300000     44.93600000     17.26300000
H      31.10650000     42.93780000     17.87880000
H      30.93200000     44.24190000     16.61560000
