18
pbedef2svp=-326.4821079685 b3lypdef2svp=-326.69517469766 b3lypvdz=-326.94587444054
N      39.65500000     34.33500000     11.28500000
C      39.67600000     35.54700000     12.07200000
C      38.29000000     35.81400000     12.69800000
C      37.15600000     35.98500000     11.68800000
C      39.80800000     32.99400000      9.23300000
C      39.83700000     34.27100000      9.99500000
O      40.16400000     35.32300000      9.34500000
H      39.48700000     33.47600000     11.76900000
H      39.91600000     36.39600000     11.41500000
H      38.04100000     34.96600000     13.35300000
H      38.35600000     36.73400000     13.29800000
H      37.25300000     35.21500000     10.90800000
H      36.19400000     35.86100000     12.20700000
H      40.65200000     33.09000000      8.53400000
H      40.40520000     35.53240000     12.89540000
H      37.18200000     36.97790000     11.21530000
H      40.03650000     32.07410000      9.79130000
H      38.94160000     32.85380000      8.56990000
