15
pbedef2svp=-233.15712486919 b3lypdef2svp=-233.31989985682 b3lypvdz=-233.49974145458
C      30.52000000     22.30000000     17.76400000
C      29.00600000     22.04300000     17.44200000
C      32.26200000     20.67000000     20.51400000
C      32.12800000     19.36400000     19.75000000
O      32.54600000     19.31700000     18.55800000
H      30.88200000     21.52100000     18.45100000
H      28.90200000     21.00100000     17.10700000
H      28.43100000     22.19000000     18.36800000
H      31.06370000     22.22990000     16.81040000
H      30.74120000     23.29180000     18.18510000
H      28.57490000     22.69440000     16.66750000
H      32.31500000     21.45700000     19.74700000
H      31.48610000     20.98670000     21.22650000
H      33.23390000     20.70250000     21.02820000
H      31.76700000     18.48210000     20.29940000
