13
pbedef2svp=-323.10564583342 b3lypdef2svp=-323.3040008861 b3lypvdz=-323.55912908491
C      28.46900000     37.47500000     15.42000000
O      28.21300000     36.75300000     16.41100000
N      29.42600000     38.43000000     15.44600000
C      30.22500000     38.64300000     16.66200000
C      31.74400000     38.87900000     16.29900000
O      31.73700000     40.25700000     15.82400000
H      29.59100000     38.99300000     14.63600000
H      30.16200000     37.75100000     17.30200000
H      32.36600000     38.76400000     17.19900000
H      32.61800000     40.51000000     15.57300000
H      27.89990000     37.35800000     14.48590000
H      29.82170000     39.50280000     17.21700000
H      32.11290000     38.22830000     15.49250000
