16
pbedef2svp=-399.33984210715
C      27.29900000     17.05500000     13.53300000
O      25.92500000     16.61100000     13.91300000
C      24.18400000     16.01600000     16.61900000
O      25.30300000     15.89400000     17.15200000
N      24.24000000     19.23300000     12.24600000
C      24.24100000     20.43600000     12.85700000
O      23.26400000     20.95100000     13.32900000
H      27.28300000     17.48700000     12.52200000
H      25.65000000     15.90600000     13.33900000
H      27.49310000     17.85740000     14.25990000
H      27.97910000     16.19060000     13.55110000
H      23.65580000     16.97670000     16.70810000
H      23.65440000     15.22930000     16.06170000
H      25.09100000     18.79700000     11.95400000
H      23.35340000     18.79510000     12.09710000
H      25.21610000     20.92100000     13.01190000
