8
pbedef2svp=-79.6377569791 b3lypdef2svp=-79.70297826803 b3lypvdz=-79.7605698294
C      26.73300000     30.14800000      2.90500000
C      26.88200000     31.54600000      3.40900000
H      27.50800000     29.99200000      2.14000000
H      25.73900000     30.07200000      2.44000000
H      26.08500000     31.75000000      4.13900000
H      27.86200000     31.64800000      3.89800000
H      26.81840000     29.32520000      3.63000000
H      26.81290000     32.27680000      2.58970000
