14
pbedef2svp=-303.26986855019 b3lypdef2svp=-303.45959827864 b3lypvdz=-303.6944956643
N      22.09900000     29.16300000      5.60500000
C      21.90700000     30.56300000      5.88100000
C      21.46600000     30.95300000      7.26100000
O      21.06600000     32.11200000      7.53300000
N      21.67400000     30.03400000      8.19100000
C      21.41900000     30.25300000      9.62000000
H      23.03200000     28.85400000      5.42200000
H      22.89500000     31.02900000      5.75500000
H      22.02400000     29.14200000      7.90400000
H      20.41000000     30.65000000      9.80700000
H      21.37400000     28.47460000      5.58190000
H      21.28200000     31.02960000      5.10540000
H      22.19030000     30.94610000      9.98680000
H      21.57530000     29.29940000     10.14560000
