14
pbedef2svp=-307.05229035999
C      36.01200000     30.86000000     19.22100000
C      36.08300000     30.19400000     17.87500000
O      35.04800000     29.70200000     17.39300000
C      35.59600000     26.71500000     15.73600000
C      36.97500000     26.82600000     15.10700000
O      37.57900000     27.92600000     15.15900000
H      35.81700000     31.93400000     19.08500000
H      36.97000000     30.72500000     19.74400000
H      35.20410000     30.41700000     19.82190000
H      37.04120000     30.13710000     17.33770000
H      35.14500000     27.71800000     15.76300000
H      34.95080000     26.04660000     15.14690000
H      35.68160000     26.34670000     16.76900000
H      37.41260000     25.92150000     14.65940000
