15
pbedef2svp=-378.382568379 b3lypdef2svp=-378.61410651339 b3lypvdz=-378.91138039365
C      30.45900000     40.66600000     12.13000000
O      30.25300000     39.99100000     13.13300000
C      29.54200000     39.02000000     10.65300000
N      30.16300000     40.33800000     10.88600000
N      29.42600000     38.43000000     15.44600000
C      28.46900000     37.47500000     15.42000000
O      28.21300000     36.75300000     16.41100000
H      29.47700000     38.47800000     11.60800000
H      30.35300000     40.96100000     10.12800000
H      30.98010000     41.62410000     12.27310000
H      30.22710000     38.47380000      9.98800000
H      28.53770000     39.04040000     10.20460000
H      29.59100000     38.99300000     14.63600000
H      29.96930000     38.57480000     16.27290000
H      27.89990000     37.35800000     14.48590000
