5
pbedef2svp=-189.41130848006 b3lypdef2svp=-189.52302011476 b3lypvdz=-189.67605609914
C      31.67100000     28.29100000      0.49800000
O      30.86900000     28.62100000     -0.36600000
O      32.83500000     27.86100000      0.27800000
H      32.99100000     27.83300000     -0.65900000
H      31.44530000     28.37820000      1.57100000
