9
pbedef2svp=-208.80684112257 b3lypdef2svp=-208.93780425159 b3lypvdz=-209.10098730746
O      29.80900000     29.39500000      5.54500000
N      31.83400000     28.41200000      5.12500000
C      31.67700000     30.27500000      6.63900000
C      31.02200000     29.28800000      5.66500000
H      32.82200000     28.45600000      5.27400000
H      32.72700000     30.46400000      6.36900000
H      31.42440000     27.69750000      4.55790000
H      31.07410000     31.19490000      6.65950000
H      31.59430000     29.85120000      7.65070000
