12
pbedef2svp=-248.032149502 b3lypdef2svp=-248.19126572774 b3lypvdz=-248.38326789968
C      26.82600000     24.52100000     21.01200000
C      27.99400000     23.78100000     21.64300000
O      28.90400000     24.44400000     22.09800000
N      27.94200000     22.44800000     21.64800000
C      29.01500000     21.65700000     22.28800000
H      25.96700000     23.83400000     21.00400000
H      27.17100000     21.98000000     21.21600000
H      29.58400000     22.29400000     22.98200000
H      26.55630000     25.39350000     21.62530000
H      26.98190000     24.85930000     19.97700000
H      29.69310000     21.25390000     21.52140000
H      28.53100000     20.84640000     22.85260000
