10
pbedef2svp=-283.85505833229 b3lypdef2svp=-284.02940290985 b3lypvdz=-284.25655282648
C      38.42100000     28.04800000     21.34100000
O      37.21300000     28.03600000     21.70400000
C      36.33400000     31.74200000     23.08700000
O      35.57400000     32.61800000     23.48300000
N      36.00000000     30.86000000     22.17200000
H      38.71040000     28.02750000     20.27990000
H      39.22070000     28.08320000     22.09540000
H      36.65600000     30.13900000     21.94800000
H      37.33660000     31.66700000     23.53330000
H      35.12530000     30.87040000     21.68750000
