8
pbedef2svp=-79.63765357081 b3lypdef2svp=-79.7027602011 b3lypvdz=-79.76046825731
C      27.57400000     18.19200000     14.56300000
C      27.29900000     17.05500000     13.53300000
H      28.56000000     18.63600000     14.36100000
H      27.28300000     17.48700000     12.52200000
H      27.52640000     17.81830000     15.59650000
H      26.79760000     18.96560000     14.46990000
H      26.28680000     16.72790000     13.81300000
H      27.97910000     16.19060000     13.55110000
