11
pbedef2svp=-118.86711653523 b3lypdef2svp=-118.96017323496 b3lypvdz=-119.04701230597
C      30.83200000     23.69900000     18.35800000
C      30.52000000     22.30000000     17.76400000
C      29.00600000     22.04300000     17.44200000
H      30.30700000     23.81600000     19.31800000
H      31.91600000     23.79500000     18.51900000
H      30.49400000     24.47800000     17.65800000
H      30.88200000     21.52100000     18.45100000
H      28.90200000     21.00100000     17.10700000
H      28.43100000     22.19000000     18.36800000
H      31.06370000     22.22990000     16.81040000
H      28.57490000     22.69440000     16.66750000
