18
pbedef2svp=-289.32685090812 b3lypdef2svp=-289.5250854729 b3lypvdz=-289.74498815862
N      21.84600000     19.95400000     15.90500000
C      21.07900000     21.14900000     16.25100000
C      22.08500000     22.25400000     16.58100000
C      22.94500000     21.95100000     17.78500000
C      24.27200000     21.54400000     17.64400000
C      22.43700000     22.15700000     19.06500000
C      23.20400000     21.90700000     20.19200000
H      22.72300000     20.07900000     15.44100000
H      20.48400000     20.94600000     17.15300000
H      22.74300000     22.39600000     15.71100000
H      21.52900000     23.18300000     16.77600000
H      24.69800000     21.42900000     16.65800000
H      21.42600000     22.51800000     19.18200000
H      22.79100000     22.04900000     21.18000000
H      21.54970000     19.01970000     16.10310000
H      20.39740000     21.46980000     15.44940000
H      24.88530000     21.34030000     18.53410000
H      24.24060000     21.56200000     20.06410000
