15
pbedef2svp=-324.29640110719 b3lypdef2svp=-324.50418355644 b3lypvdz=-324.75906804112
C      29.60400000     43.50700000     13.39300000
O      29.21900000     43.98100000     12.30100000
N      30.56300000     42.62300000     13.49500000
O      33.17400000     43.06700000     16.26500000
C      33.65700000     43.31900000     18.67200000
C      32.97900000     43.91800000     17.44500000
H      30.87700000     42.35700000     14.40600000
H      29.14480000     43.83930000     14.33570000
H      30.99400000     42.20360000     12.69610000
H      34.10300000     42.97400000     16.09100000
H      34.74800000     43.33300000     18.53200000
H      33.39400000     43.91000000     19.56100000
H      33.31800000     42.28100000     18.80800000
H      33.35300000     44.93600000     17.26300000
H      31.88170000     43.93350000     17.52110000
