22
pbedef2svp=-328.80482181939
C      27.57400000     18.19200000     14.56300000
C      27.29900000     17.05500000     13.53300000
N      24.24000000     19.23300000     12.24600000
C      22.92400000     18.58300000     12.02500000
C      30.79600000     19.08300000     10.56600000
C      30.49100000     19.16200000     12.04000000
O      29.36700000     19.52300000     12.44100000
H      28.56000000     18.63600000     14.36100000
H      27.28300000     17.48700000     12.52200000
H      27.52640000     17.81830000     15.59650000
H      26.79760000     18.96560000     14.46990000
H      26.28680000     16.72790000     13.81300000
H      27.97910000     16.19060000     13.55110000
H      25.09100000     18.79700000     11.95400000
H      22.28300000     19.29200000     11.48000000
H      24.24070000     20.12460000     12.69880000
H      22.41860000     18.33650000     12.97040000
H      23.02070000     17.68240000     11.40090000
H      31.64900000     18.41000000     10.39300000
H      29.91060000     18.72500000     10.02010000
H      31.04840000     20.08980000     10.20180000
H      31.33860000     18.97400000     12.71540000
