18
pbedef2svp=-326.47094518983 b3lypdef2svp=-326.68418569252 b3lypvdz=-326.93527538664
C      38.81700000     28.02000000     19.88900000
C      41.46100000     30.75100000     19.59400000
C      40.16800000     30.02600000     19.91800000
O      39.26400000     30.66200000     20.52100000
C      42.19500000     31.14200000     20.91300000
C      42.90400000     32.41400000     20.55300000
N      40.05900000     28.75800000     19.60700000
H      38.00200000     28.46900000     19.30300000
H      42.11200000     30.14800000     18.94400000
H      41.47600000     31.30900000     21.72900000
H      42.91200000     30.36200000     21.21000000
H      43.23600000     32.95400000     21.45200000
H      43.76900000     32.21800000     19.90300000
H      38.52760000     28.04050000     20.95010000
H      39.01380000     27.01710000     19.48230000
H      41.25790000     31.74700000     19.17360000
H      42.12220000     32.97330000     20.01830000
H      40.71650000     28.18600000     19.11660000
