10
pbedef2svp=-134.84894675941 b3lypdef2svp=-134.94575790291 b3lypvdz=-135.04635527867
N      41.18900000     32.08500000     19.03100000
C      41.46100000     30.75100000     19.59400000
C      41.82200000     33.18800000     19.81300000
H      42.11200000     30.14800000     18.94400000
H      41.10900000     33.65500000     20.50800000
H      42.25100000     33.95800000     19.15500000
H      40.63190000     32.23030000     18.21340000
H      40.52370000     30.22540000     19.82890000
H      41.97880000     31.02680000     20.52450000
H      42.60380000     32.62870000     20.34770000
