14
pbedef2svp=-361.14149784268 b3lypdef2svp=-361.36256322593 b3lypvdz=-361.6476132781
C      24.10100000     30.14900000     19.19600000
O      24.19600000     30.94800000     18.28700000
N      23.14100000     29.18700000     19.24100000
C      22.12600000     29.06200000     18.18300000
C      20.83500000     28.62900000     18.90400000
O      20.82100000     27.73400000     19.74900000
C      22.49400000     28.05700000     17.10900000
H      23.12400000     28.54900000     20.01100000
H      21.95700000     30.04300000     17.71400000
H      23.42500000     28.39400000     16.63000000
H      22.66300000     27.08400000     17.59400000
H      24.77440000     30.16420000     20.06570000
H      19.97480000     29.25760000     18.63040000
H      21.73530000     27.92080000     16.32420000
