11
pbedef2svp=-118.8666180466 b3lypdef2svp=-118.95963685068 b3lypvdz=-119.04659430468
C      23.72700000     35.13100000     12.72200000
C      23.21200000     32.76200000     11.89100000
C      22.69900000     34.26700000     11.98500000
H      23.36200000     36.16700000     12.78000000
H      23.87600000     34.73700000     13.73800000
H      24.68200000     35.10900000     12.17700000
H      24.14700000     32.76300000     11.31200000
H      21.74500000     34.28200000     12.53300000
H      22.48450000     32.09600000     11.40400000
H      23.42580000     32.37470000     12.89810000
H      22.54660000     34.58290000     10.94240000
