15
pbedef2svp=-287.24909801531 b3lypdef2svp=-287.43465083087 b3lypvdz=-287.65590267923
C      23.50900000     32.22400000     13.29000000
O      22.54400000     31.94200000     14.03400000
N      24.79000000     32.02100000     13.61800000
C      25.14900000     31.60900000     14.98000000
C      26.31000000     30.59400000     14.96700000
C      26.29000000     29.48000000     13.96000000
H      25.50600000     32.15100000     12.93200000
H      24.28500000     31.20800000     15.53000000
H      27.23500000     31.16400000     14.79900000
H      26.34200000     30.12800000     15.96300000
H      26.46700000     29.91100000     12.96300000
H      23.29520000     32.61130000     12.28290000
H      25.54030000     32.51210000     15.47110000
H      27.07870000     28.73780000     14.15240000
H      25.30590000     28.98870000     13.95420000
