23
pbedef2svp=-312.80314192078
C      38.69300000     34.10600000     17.59500000
C      38.14600000     33.93200000     19.02700000
C      35.92600000     35.97900000     21.73700000
C      35.00300000     35.08400000     20.92000000
C      34.73800000     30.87500000     21.47300000
C      33.58900000     30.18900000     22.18100000
O      33.58000000     29.00900000     22.49900000
H      38.14400000     33.41300000     16.94100000
H      37.08200000     34.21100000     19.05000000
H      38.25700000     32.88200000     19.33700000
H      38.70900000     34.57900000     19.71600000
H      39.75750000     33.83520000     17.53530000
H      38.53620000     35.12310000     17.20650000
H      36.73600000     35.36100000     22.15200000
H      35.56200000     34.65300000     20.07600000
H      34.62000000     34.27400000     21.55700000
H      34.16100000     35.67900000     20.53700000
H      35.34590000     36.39700000     22.57290000
H      36.36930000     36.78820000     21.13810000
H      34.44500000     31.92400000     21.31900000
H      35.70020000     30.86360000     22.00590000
H      34.83590000     30.42250000     20.47520000
H      32.67090000     30.79060000     22.25370000
