10
pbedef2svp=-192.74975508585 b3lypdef2svp=-192.87707964552 b3lypvdz=-193.02833141501
C      37.47100000     27.39100000     10.66800000
C      37.44100000     28.88200000     11.05200000
O      38.02000000     29.77200000     10.38200000
C      36.19300000     27.05800000      9.91100000
H      38.32600000     27.22700000      9.99500000
H      35.33700000     27.21800000     10.58200000
H      36.11200000     27.73300000      9.04600000
H      37.59160000     26.75970000     11.56070000
H      36.92150000     29.11950000     11.99210000
H      36.16410000     26.01980000      9.54860000
