11
pbedef2svp=-321.90559241471 b3lypdef2svp=-322.09718538945 b3lypvdz=-322.35381376858
C      21.46000000     18.73700000     16.16300000
O      20.49700000     18.50600000     16.90000000
C      22.22900000     18.24400000     13.32500000
O      20.96300000     18.25300000     13.39500000
N      22.99700000     17.97800000     14.36600000
C      22.41800000     17.63800000     15.69300000
H      23.99100000     18.00600000     14.25900000
H      21.81600000     16.72700000     15.56300000
H      21.78600000     19.76470000     15.94510000
H      22.73440000     18.49050000     12.37960000
H      23.17780000     17.41440000     16.45640000
