15
pbedef2svp=-233.16344049609
C      34.87600000     30.23700000     20.06600000
C      36.01200000     30.86000000     19.22100000
C      41.46100000     30.75100000     19.59400000
C      40.16800000     30.02600000     19.91800000
O      39.26400000     30.66200000     20.52100000
H      35.08000000     29.16300000     20.18800000
H      33.92600000     30.37100000     19.52700000
H      35.81700000     31.93400000     19.08500000
H      36.97000000     30.72500000     19.74400000
H      34.77810000     30.68950000     21.06380000
H      36.06390000     30.37270000     18.23620000
H      42.11200000     30.14800000     18.94400000
H      41.25790000     31.74700000     19.17360000
H      41.97880000     31.02680000     20.52450000
H      40.07650000     28.96140000     19.65690000
