16
pbedef2svp=-362.34119390367 b3lypdef2svp=-362.56999795116 b3lypvdz=-362.85537396171
N      24.79000000     32.02100000     13.61800000
C      23.21200000     32.76200000     11.89100000
C      23.50900000     32.22400000     13.29000000
O      22.54400000     31.94200000     14.03400000
C      26.77200000     33.43600000      9.19700000
C      27.15100000     33.36200000     10.65000000
O      26.35000000     32.77800000     11.39500000
H      25.50600000     32.15100000     12.93200000
H      24.14700000     32.76300000     11.31200000
H      25.03460000     31.74030000     14.54610000
H      22.48450000     32.09600000     11.40400000
H      22.85770000     33.80140000     11.95590000
H      27.66100000     33.67200000      8.59400000
H      26.36600000     32.46180000      8.88710000
H      25.99930000     34.19790000      9.01690000
H      28.06890000     33.84290000     11.01910000
