12
pbedef2svp=-193.92105644574
C      30.49100000     19.16200000     12.04000000
O      29.36700000     19.52300000     12.44100000
C      27.42600000     22.61600000     11.90200000
C      27.38000000     23.72100000     12.95500000
H      30.71360000     19.10430000     10.96430000
H      31.33860000     18.97400000     12.71540000
H      28.23400000     21.90500000     12.13000000
H      28.35200000     24.23400000     12.99200000
H      26.59400000     24.44400000     12.69300000
H      27.16100000     23.28100000     13.93900000
H      26.46010000     22.09200000     11.85230000
H      27.63490000     23.13470000     10.95470000
