14
pbedef2svp=-249.15540127423
C      26.48200000     19.28000000     14.43200000
O      25.60900000     19.38800000     15.28700000
C      22.08500000     22.25400000     16.58100000
N      21.84600000     19.95400000     15.90500000
C      21.07900000     21.14900000     16.25100000
H      27.25840000     18.50640000     14.52510000
H      26.56800000     19.93400000     13.55170000
H      22.74300000     22.39600000     15.71100000
H      21.52900000     23.18300000     16.77600000
H      22.72300000     20.07900000     15.44100000
H      20.48400000     20.94600000     17.15300000
H      22.71140000     22.03330000     17.45790000
H      21.54970000     19.01970000     16.10310000
H      20.39740000     21.46980000     15.44940000
