13
pbedef2svp=-231.97515722819 b3lypdef2svp=-232.13075766728 b3lypvdz=-232.31069242394
C      20.08100000     24.77300000      8.03300000
C      18.59900000     24.73600000      7.72700000
C      17.81900000     23.43400000      7.90000000
C      16.50900000     23.52900000      7.11600000
O      15.44600000     22.98000000      7.43300000
H      20.52200000     23.82600000      7.68800000
H      18.12100000     25.48200000      8.37800000
H      18.48300000     25.03900000      6.67600000
H      18.41700000     22.59300000      7.51900000
H      17.60000000     23.27500000      8.96600000
H      20.23580000     24.84820000      9.11950000
H      20.61360000     25.59310000      7.52920000
H      16.53350000     24.15370000      6.21090000
