10
pbedef2svp=-192.7490978291 b3lypdef2svp=-192.87626490822 b3lypvdz=-193.02764495405
C      29.27900000     23.22700000      5.64100000
O      28.47800000     23.52200000      4.72500000
C      29.90300000     24.59000000      7.66500000
C      30.28800000     24.24500000      6.19300000
H      29.89100000     23.63600000      8.21200000
H      31.28700000     23.78400000      6.19600000
H      29.36350000     22.24810000      6.13550000
H      30.60400000     25.25220000      8.19420000
H      28.87570000     24.98230000      7.69380000
H      30.30460000     25.16000000      5.58270000
