11
pbedef2svp=-321.89717029506 b3lypdef2svp=-322.09039364271 b3lypvdz=-322.34666983627
C      28.63800000     35.46100000     12.90000000
O      29.52200000     36.10300000     12.32000000
N      27.75100000     35.86700000     13.74000000
C      27.69100000     37.31500000     14.14300000
C      28.46900000     37.47500000     15.42000000
O      28.21300000     36.75300000     16.41100000
H      27.09800000     35.21600000     14.12700000
H      28.13900000     37.93800000     13.35500000
H      28.61460000     34.39800000     12.61790000
H      26.63020000     37.58090000     14.26120000
H      29.24750000     38.25190000     15.44120000
