10
pbedef2svp=-192.7387901861 b3lypdef2svp=-192.86513355632 b3lypvdz=-193.01648642889
C      31.20000000     30.32900000     22.78000000
C      30.21000000     30.50900000     21.65000000
O      29.97800000     31.72600000     21.26900000
C      30.84700000     30.93100000     24.11800000
H      31.35500000     29.25000000     22.92500000
H      31.49100000     30.45600000     24.87200000
H      31.07600000     32.00600000     24.06500000
H      32.13930000     30.76110000     22.40440000
H      29.78370000     29.62250000     21.15760000
H      29.80790000     30.83320000     24.46560000
