14
pbedef2svp=-249.15861283455
C      29.54200000     39.02000000     10.65300000
N      30.16300000     40.33800000     10.88600000
C      28.60500000     33.96500000     12.50300000
C      28.63800000     35.46100000     12.90000000
O      29.52200000     36.10300000     12.32000000
H      29.47700000     38.47800000     11.60800000
H      30.35300000     40.96100000     10.12800000
H      30.22710000     38.47380000      9.98800000
H      28.53770000     39.04040000     10.20460000
H      30.38720000     40.58650000     11.82830000
H      27.82500000     33.46000000     13.09200000
H      28.34310000     33.94830000     11.43480000
H      29.57720000     33.50110000     12.72570000
H      27.88010000     35.80790000     13.61780000
