16
pbedef2svp=-234.09233161567 b3lypdef2svp=-234.25838119868 b3lypvdz=-234.43586161051
C      26.13600000     35.34600000      6.64000000
C      23.81200000     34.03100000      5.67700000
C      26.77200000     33.43600000      9.19700000
C      25.69500000     34.49800000      8.94600000
C      25.28800000     34.60900000      7.49900000
C      24.14700000     33.96600000      7.03800000
H      27.00600000     35.85800000      7.02300000
H      22.94800000     33.51100000      5.29000000
H      27.66100000     33.67200000      8.59400000
H      24.80600000     34.23900000      9.53900000
H      26.08400000     35.47300000      9.27400000
H      23.51900000     33.41800000      7.72500000
H      25.88200000     35.38180000      5.57030000
H      24.45850000     34.62870000      5.01770000
H      26.36600000     32.46180000      8.88710000
H      27.04930000     33.38190000     10.26010000
