24
pbedef2svp=-238.91701061648
C      32.63100000     29.44400000      9.06000000
C      31.94500000     29.44900000     10.43600000
C      31.68400000     26.74900000     13.34200000
C      32.06000000     25.25700000     13.36400000
C      34.75800000     25.28000000      8.90000000
C      34.79300000     24.26400000      7.76700000
H      33.02000000     28.42800000      8.89700000
H      32.69500000     29.27400000     11.22100000
H      31.46200000     30.42300000     10.60100000
H      31.18600000     28.65300000     10.47000000
H      31.84380000     29.62220000      8.31260000
H      33.48990000     30.13090000      9.03820000
H      30.62600000     26.86500000     13.61900000
H      32.31300000     27.29600000     14.06000000
H      31.84500000     27.15300000     12.33100000
H      31.94400000     24.89900000     14.39800000
H      33.11820000     25.14210000     13.08670000
H      31.40290000     24.65200000     12.72210000
H      34.16900000     24.86400000      9.73100000
H      34.27900000     26.20100000      8.53600000
H      35.65600000     23.59600000      7.90900000
H      33.86500000     23.67300000      7.78500000
H      35.76530000     25.52550000      9.26750000
H      34.88200000     24.76430000      6.79140000
