13
pbedef2svp=-269.05086472872
C      20.21000000     26.42300000      3.17500000
C      21.63100000     26.64200000      3.73100000
C      21.15600000     30.72600000      2.31100000
O      19.94200000     30.79300000      2.17000000
O      21.95400000     30.15200000      1.53500000
H      19.86200000     25.41000000      3.42700000
H      19.52200000     27.16500000      3.60600000
H      22.06200000     27.53200000      3.24900000
H      22.24200000     25.76100000      3.48700000
H      20.25170000     26.54240000      2.08230000
H      21.64910000     26.79010000      4.82080000
H      21.47300000     29.77100000      0.81000000
H      21.67540000     31.17990000      3.16790000
