15
pbedef2svp=-287.26423242573 b3lypdef2svp=-287.45089689356 b3lypvdz=-287.67248034987
C      40.26900000     30.50800000     14.11500000
C      40.99600000     29.39900000     14.86500000
C      42.44500000     29.84800000     15.18200000
C      43.09000000     28.82800000     16.09500000
O      42.77000000     27.65500000     15.90600000
N      43.89800000     29.25200000     17.05000000
H      40.23000000     31.41000000     14.74400000
H      40.46600000     29.18400000     15.80400000
H      41.02200000     28.49200000     14.24300000
H      43.02100000     29.92200000     14.24800000
H      42.42600000     30.82900000     15.68000000
H      44.30200000     28.59800000     17.69000000
H      44.10600000     30.22700000     17.13300000
H      39.25060000     30.21550000     13.81960000
H      40.85770000     30.72260000     13.21090000
