18
pbedef2svp=-326.48358835769 b3lypdef2svp=-326.69689067988 b3lypvdz=-326.94704550888
C      29.90300000     24.59000000      7.66500000
C      30.86200000     25.49600000      8.38900000
C      28.47600000     25.13500000      7.70500000
C      31.44000000     26.07900000      5.08000000
O      32.57600000     25.80200000      5.46100000
N      30.31000000     25.45800000      5.38400000
C      30.28800000     24.24500000      6.19300000
H      29.89100000     23.63600000      8.21200000
H      30.49800000     25.67400000      9.41200000
H      31.85400000     25.02200000      8.43000000
H      30.93500000     26.45400000      7.85400000
H      28.20500000     25.37800000      8.74300000
H      28.41300000     26.04300000      7.08700000
H      27.78300000     24.37600000      7.31300000
H      29.44600000     25.83300000      5.04800000
H      31.28700000     23.78400000      6.19600000
H      31.28000000     26.99650000      4.49470000
H      29.56540000     23.51590000      5.79770000
