15
pbedef2svp=-229.34189526327 b3lypdef2svp=-229.50050969677 b3lypvdz=-229.67555268405
C      31.20000000     30.32900000     22.78000000
C      30.84700000     30.93100000     24.11800000
C      34.33800000     29.10300000     26.65000000
N      34.11000000     28.43700000     27.76800000
N      34.01400000     28.65700000     25.45700000
H      31.35500000     29.25000000     22.92500000
H      31.49100000     30.45600000     24.87200000
H      31.07600000     32.00600000     24.06500000
H      32.13930000     30.76110000     22.40440000
H      30.48030000     30.45990000     21.95850000
H      29.80790000     30.83320000     24.46560000
H      33.66800000     27.54100000     27.73500000
H      34.38000000     28.82900000     28.64700000
H      33.57700000     27.75900000     25.49900000
H      34.91050000     30.04000000     26.71520000
