8
pbedef2svp=-79.63989678406 b3lypdef2svp=-79.70513272794 b3lypvdz=-79.7628454102
C      30.92500000     34.30400000     17.75300000
C      32.34500000     34.18300000     18.35800000
H      30.79800000     33.52100000     16.99100000
H      30.82500000     35.29300000     17.28200000
H      32.46000000     34.90800000     19.17700000
H      30.13450000     34.19220000     18.50970000
H      32.49840000     33.16000000     18.73210000
H      33.07160000     34.40330000     17.56200000
