14
pbedef2svp=-212.09997593209 b3lypdef2svp=-212.24830210686 b3lypvdz=-212.40878752506
C      21.44700000     27.86900000     16.02600000
C      21.32500000     28.81300000     15.00500000
N      23.14100000     29.18700000     19.24100000
C      22.12600000     29.06200000     18.18300000
C      22.49400000     28.05700000     17.10900000
H      21.97400000     29.67600000     14.99200000
H      23.12400000     28.54900000     20.01100000
H      21.95700000     30.04300000     17.71400000
H      23.42500000     28.39400000     16.63000000
H      22.66300000     27.08400000     17.59400000
H      20.80830000     26.97370000     16.04730000
H      20.57180000     28.68300000     14.21400000
H      23.84700000     29.89450000     19.20790000
H      21.20430000     28.75290000     18.69770000
