9
pbedef2svp=-208.79545450407 b3lypdef2svp=-208.92565401562 b3lypvdz=-209.08886397672
C      38.79400000     25.76100000     13.88000000
N      37.49900000     25.74300000     14.57100000
C      36.97500000     26.82600000     15.10700000
O      37.57900000     27.92600000     15.15900000
H      39.53500000     26.22600000     14.54600000
H      36.99800000     24.88000000     14.63700000
H      38.74620000     26.36250000     12.96030000
H      39.14480000     24.74290000     13.65570000
H      35.97690000     26.74570000     15.56230000
