15
pbedef2svp=-233.16245505525
C      36.15300000     25.62000000      9.40900000
C      34.75800000     25.28000000      8.90000000
C      35.59000000     21.94500000     13.30200000
C      35.23800000     23.38200000     12.92000000
O      36.06600000     24.10900000     12.33300000
H      36.87800000     25.50100000      8.59000000
H      36.41500000     24.94000000     10.23300000
H      34.16900000     24.86400000      9.73100000
H      34.27900000     26.20100000      8.53600000
H      36.18190000     26.65820000      9.77140000
H      34.78330000     24.54580000      8.08130000
H      36.68700000     21.87000000     13.28900000
H      35.25210000     21.70450000     14.32080000
H      35.21250000     21.23590000     12.55060000
H      34.21620000     23.68330000     13.19390000
