5
pbedef2svp=-40.41487655198 b3lypdef2svp=-40.45178848446 b3lypvdz=-40.48033302588
C      25.35300000     24.86000000      5.13400000
H      26.29500000     24.33800000      5.35600000
H      25.40300000     25.88800000      5.52200000
H      25.17680000     24.87460000      4.04830000
H      24.50780000     24.32480000      5.59140000
