15
pbedef2svp=-378.36912443309 b3lypdef2svp=-378.59877889495 b3lypvdz=-378.89736099939
N      30.12400000     34.53300000     21.19100000
C      30.47900000     35.36900000     22.37400000
C      30.05200000     35.04200000     20.00400000
O      30.10500000     36.30500000     19.78800000
N      29.69400000     29.43600000     21.05400000
C      30.21000000     30.50900000     21.65000000
O      29.97800000     31.72600000     21.26900000
H      29.93800000     33.55900000     21.31800000
H      30.50500000     36.43000000     22.08400000
H      31.49760000     35.04020000     22.62760000
H      29.75060000     35.23300000     23.18700000
H      29.86790000     34.38390000     19.14200000
H      29.93800000     28.52400000     21.38400000
H      29.06640000     29.52830000     20.28090000
H      30.92970000     30.37810000     22.47150000
