13
pbedef2svp=-377.19417499328 b3lypdef2svp=-377.41769649671 b3lypvdz=-377.71545645961
C      28.37500000     17.99900000     16.88700000
O      29.32600000     18.78600000     16.69000000
N      27.51000000     17.68900000     15.95400000
C      27.57400000     18.19200000     14.56300000
C      26.48200000     19.28000000     14.43200000
O      25.60900000     19.38800000     15.28700000
N      26.58500000     20.06300000     13.37800000
H      26.75900000     17.07400000     16.19600000
H      28.56000000     18.63600000     14.36100000
H      27.36400000     19.94300000     12.76300000
H      28.18190000     17.59410000     17.89140000
H      27.37990000     17.38960000     13.83610000
H      25.91220000     20.77310000     13.17030000
