18
pbedef2svp=-363.4947427073
C      24.24100000     20.43600000     12.85700000
O      23.26400000     20.95100000     13.32900000
C      22.65000000     24.51600000     12.17200000
C      22.66200000     24.81900000     13.69900000
C      21.46000000     18.73700000     16.16300000
O      20.49700000     18.50600000     16.90000000
N      21.84600000     19.95400000     15.90500000
H      25.21610000     20.92100000     13.01190000
H      24.24020000     19.45520000     12.35890000
H      23.21600000     23.58600000     12.01300000
H      22.10700000     25.74900000     13.89000000
H      22.18400000     23.98900000     14.23900000
H      21.61880000     24.33800000     11.83300000
H      23.16720000     25.32030000     11.62840000
H      23.69790000     24.93390000     14.05070000
H      22.72300000     20.07900000     15.44100000
H      22.14790000     17.94780000     15.82550000
H      21.32120000     20.77160000     16.14170000
