13
pbedef2svp=-269.0067981071
C      27.29900000     17.05500000     13.53300000
O      25.92500000     16.61100000     13.91300000
C      23.46100000     17.33100000     16.74100000
C      24.18400000     16.01600000     16.61900000
O      25.30300000     15.89400000     17.15200000
H      27.28300000     17.48700000     12.52200000
H      25.65000000     15.90600000     13.33900000
H      27.49310000     17.85740000     14.25990000
H      27.97910000     16.19060000     13.55110000
H      24.21600000     18.13000000     16.70200000
H      22.96200000     17.34600000     17.72100000
H      22.70120000     17.55460000     15.97760000
H      23.65440000     15.22930000     16.06170000
