12
pbedef2svp=-248.02675282828 b3lypdef2svp=-248.1856677746 b3lypvdz=-248.37799393564
C      34.14500000     35.47200000     23.48100000
C      34.23900000     35.35300000     24.97900000
O      33.70700000     36.19700000     25.72800000
N      34.93000000     34.38400000     25.45100000
C      35.16100000     34.17400000     26.89600000
H      34.41100000     34.50500000     23.02800000
H      35.33500000     33.73400000     24.80800000
H      34.63100000     34.92600000     27.50000000
H      33.11810000     35.73870000     23.19050000
H      34.82450000     36.23770000     23.07850000
H      36.24860000     34.26190000     27.03500000
H      34.84230000     33.15910000     27.17590000
