17
pbedef2svp=-288.39079811046
O      33.54400000     23.08600000     20.88300000
C      34.17400000     22.12900000     21.35400000
C      34.50900000     26.07700000     19.36000000
C      33.20600000     26.31100000     20.12200000
N      33.45500000     25.91000000     21.54600000
C      34.34300000     26.44500000     17.89800000
H      33.78490000     21.10330000     21.27270000
H      35.12210000     22.29880000     21.88520000
H      34.78800000     25.01600000     19.43700000
H      35.30300000     26.69700000     19.80200000
H      32.92400000     27.37300000     20.07200000
H      32.40100000     25.69700000     19.69200000
H      32.62200000     26.04800000     22.08200000
H      33.71700000     24.94500000     21.58000000
H      34.05700000     27.50400000     17.81100000
H      33.56400000     25.81600000     17.44200000
H      35.30370000     26.27560000     17.38970000
