16
pbedef2svp=-362.31565898902 b3lypdef2svp=-362.54641703855 b3lypvdz=-362.83089396559
C      26.91300000     26.63900000      3.53100000
O      27.88600000     26.46300000      4.26300000
C      29.90300000     24.59000000      7.66500000
C      31.44000000     26.07900000      5.08000000
O      32.57600000     25.80200000      5.46100000
N      30.31000000     25.45800000      5.38400000
C      30.28800000     24.24500000      6.19300000
H      26.45330000     25.76780000      3.04140000
H      26.42360000     27.59660000      3.29980000
H      29.89100000     23.63600000      8.21200000
H      29.44600000     25.83300000      5.04800000
H      31.28700000     23.78400000      6.19600000
H      30.60400000     25.25220000      8.19420000
H      28.87570000     24.98230000      7.69380000
H      31.28000000     26.99650000      4.49470000
H      29.56540000     23.51590000      5.79770000
