11
pbedef2svp=-118.86465763677 b3lypdef2svp=-118.95772867548 b3lypvdz=-119.04473914839
C      20.21000000     26.42300000      3.17500000
C      20.26800000     26.58900000      1.65600000
C      21.63100000     26.64200000      3.73100000
H      19.86200000     25.41000000      3.42700000
H      19.52200000     27.16500000      3.60600000
H      20.17600000     27.66100000      1.42700000
H      21.24600000     26.22300000      1.31100000
H      22.06200000     27.53200000      3.24900000
H      22.24200000     25.76100000      3.48700000
H      19.48750000     26.05310000      1.09590000
H      21.64910000     26.79010000      4.82080000
