13
pbedef2svp=-174.0980837215 b3lypdef2svp=-174.22341075482 b3lypvdz=-174.35291879547
C      31.68400000     26.74900000     13.34200000
N      34.00700000     23.74500000     13.25000000
C      33.53300000     25.09700000     12.97800000
C      32.06000000     25.25700000     13.36400000
H      30.62600000     26.86500000     13.61900000
H      32.31300000     27.29600000     14.06000000
H      31.84500000     27.15300000     12.33100000
H      33.39700000     23.08600000     13.69000000
H      33.61300000     25.28200000     11.89700000
H      31.94400000     24.89900000     14.39800000
H      34.93590000     23.47110000     13.00100000
H      34.18780000     25.81960000     13.48710000
H      31.40290000     24.65200000     12.72210000
