14
pbedef2svp=-212.09829223998 b3lypdef2svp=-212.24666510143 b3lypvdz=-212.4069174983
N      21.84600000     19.95400000     15.90500000
C      21.07900000     21.14900000     16.25100000
C      22.08500000     22.25400000     16.58100000
C      22.94500000     21.95100000     17.78500000
C      22.43700000     22.15700000     19.06500000
H      22.72300000     20.07900000     15.44100000
H      20.48400000     20.94600000     17.15300000
H      22.74300000     22.39600000     15.71100000
H      21.52900000     23.18300000     16.77600000
H      21.42600000     22.51800000     19.18200000
H      21.54970000     19.01970000     16.10310000
H      20.39740000     21.46980000     15.44940000
H      23.99130000     21.63010000     17.67380000
H      23.04570000     21.95860000     19.95950000
