16
pbedef2svp=-362.34159105319 b3lypdef2svp=-362.56781481849 b3lypvdz=-362.85162050877
N      31.51000000     18.93600000     12.85200000
C      31.39800000     19.06400000     14.28600000
C      32.49200000     18.19300000     14.99500000
O      33.77800000     18.73900000     14.51600000
C      32.35200000     16.70000000     14.63000000
C      30.49100000     19.16200000     12.04000000
O      29.36700000     19.52300000     12.44100000
H      32.38900000     18.66700000     12.45900000
H      30.40500000     18.73500000     14.62700000
H      32.40300000     18.31600000     16.08500000
H      34.49400000     18.25400000     14.90900000
H      33.13400000     16.12100000     15.14400000
H      31.36200000     16.33700000     14.94300000
H      32.46000000     16.57700000     13.54200000
H      31.53670000     20.12320000     14.54850000
H      30.71360000     19.10430000     10.96430000
