8
pbedef2svp=-79.63925000634 b3lypdef2svp=-79.70447555791 b3lypvdz=-79.76218145387
C      27.42600000     22.61600000     11.90200000
C      27.71800000     23.34100000     10.57800000
H      28.23400000     21.90500000     12.13000000
H      28.68700000     23.85800000     10.64800000
H      27.75200000     22.60800000      9.75900000
H      26.92400000     24.07600000     10.38000000
H      26.46010000     22.09200000     11.85230000
H      27.39290000     23.41200000     12.66050000
