20
pbedef2svp=-364.6955856972
C      29.90300000     24.59000000      7.66500000
C      30.86200000     25.49600000      8.38900000
N      34.91400000     24.94400000      6.44100000
C      34.79300000     24.26400000      7.76700000
C      31.92300000     20.43600000      8.75500000
O      32.49300000     19.37400000      8.45600000
O      31.83800000     21.40200000      7.96800000
H      29.89100000     23.63600000      8.21200000
H      30.49800000     25.67400000      9.41200000
H      31.85400000     25.02200000      8.43000000
H      30.93500000     26.45400000      7.85400000
H      30.17450000     24.34680000      6.62710000
H      28.87570000     24.98230000      7.69380000
H      34.93500000     24.25700000      5.71400000
H      34.13000000     25.55000000      6.30400000
H      35.65600000     23.59600000      7.90900000
H      33.86500000     23.67300000      7.78500000
H      34.76770000     24.99820000      8.58570000
H      32.26600000     21.18200000      7.14900000
H      31.36200000     20.49370000      9.69940000
