23
pbedef2svp=-254.91665759985
C      32.63100000     29.44400000      9.06000000
C      31.94500000     29.44900000     10.43600000
N      34.00700000     23.74500000     13.25000000
C      33.53300000     25.09700000     12.97800000
C      34.75800000     25.28000000      8.90000000
C      34.79300000     24.26400000      7.76700000
H      33.02000000     28.42800000      8.89700000
H      32.69500000     29.27400000     11.22100000
H      31.46200000     30.42300000     10.60100000
H      31.18600000     28.65300000     10.47000000
H      31.84380000     29.62220000      8.31260000
H      33.48990000     30.13090000      9.03820000
H      33.39700000     23.08600000     13.69000000
H      33.61300000     25.28200000     11.89700000
H      34.93590000     23.47110000     13.00100000
H      34.18780000     25.81960000     13.48710000
H      32.47480000     25.21190000     13.25530000
H      34.16900000     24.86400000      9.73100000
H      34.27900000     26.20100000      8.53600000
H      35.65600000     23.59600000      7.90900000
H      33.86500000     23.67300000      7.78500000
H      35.76530000     25.52550000      9.26750000
H      34.88200000     24.76430000      6.79140000
