11
pbedef2svp=-118.86796386891 b3lypdef2svp=-118.96119997675 b3lypvdz=-119.04801493723
C      35.92600000     35.97900000     21.73700000
C      35.00300000     35.08400000     20.92000000
C      36.53300000     37.08700000     20.91700000
H      36.73600000     35.36100000     22.15200000
H      35.56200000     34.65300000     20.07600000
H      34.62000000     34.27400000     21.55700000
H      34.16100000     35.67900000     20.53700000
H      37.11000000     36.65500000     20.08600000
H      35.73300000     37.72600000     20.51500000
H      37.20000000     37.68900000     21.55100000
H      35.34590000     36.39700000     22.57290000
