18
pbedef2svp=-363.50405608557
C      36.97500000     26.82600000     15.10700000
O      37.57900000     27.92600000     15.15900000
C      33.28400000     30.50400000     14.55200000
C      34.22800000     30.63000000     13.31900000
C      36.08300000     30.19400000     17.87500000
O      35.04800000     29.70200000     17.39300000
N      37.22800000     30.12600000     17.23300000
H      35.97690000     26.74570000     15.56230000
H      37.41260000     25.92150000     14.65940000
H      32.24400000     30.40100000     14.20900000
H      33.56500000     29.61800000     15.14000000
H      33.37700000     31.40400000     15.17800000
H      33.94700000     31.51600000     12.73100000
H      34.13500000     29.73000000     12.69300000
H      35.26830000     30.73260000     13.66130000
H      37.27600000     29.67300000     16.34300000
H      38.05100000     30.52700000     17.63500000
H      36.03110000     30.68130000     18.85980000
