12
pbedef2svp=-248.03783178129 b3lypdef2svp=-248.19610180921 b3lypvdz=-248.38862962217
C      40.22600000     33.71600000     17.50900000
C      40.44900000     32.27800000     17.94500000
O      39.93600000     31.33600000     17.31500000
C      38.69300000     34.10600000     17.59500000
N      41.18900000     32.08500000     19.03100000
H      40.79400000     34.38800000     18.16900000
H      38.14400000     33.41300000     16.94100000
H      40.53700000     33.86550000     16.46450000
H      38.53620000     35.12310000     17.20650000
H      38.30300000     33.98190000     18.61600000
H      41.37360000     31.17950000     19.41310000
H      41.61300000     32.82380000     19.55480000
