19
pbedef2svp=-347.43914807312
C      38.72800000     26.59100000     12.61100000
O      39.70400000     27.34600000     12.27700000
C      40.99600000     29.39900000     14.86500000
C      42.44500000     29.84800000     15.18200000
O      43.66600000     28.26200000      9.53900000
C      41.39800000     28.78000000      9.81000000
C      42.62600000     28.55700000      8.92800000
H      38.77580000     25.98950000     13.53070000
H      37.81870000     26.55110000     11.99320000
H      40.46600000     29.18400000     15.80400000
H      41.02200000     28.49200000     14.24300000
H      43.02100000     29.92200000     14.24800000
H      42.42600000     30.82900000     15.68000000
H      40.47110000     30.19970000     14.32350000
H      42.91390000     29.10660000     15.84570000
H      41.23000000     27.91100000     10.46300000
H      40.50500000     28.95100000      9.19100000
H      41.62820000     29.67330000     10.40920000
H      42.45250000     28.78280000      7.86550000
