24
pbedef2svp=-238.91921428313
C      34.73800000     30.87500000     21.47300000
C      34.87600000     30.23700000     20.06600000
C      30.41600000     28.91200000     17.98000000
C      30.20500000     30.16800000     17.12900000
C      32.34500000     34.18300000     18.35800000
C      32.55500000     32.78300000     18.87000000
H      34.44500000     31.92400000     21.31900000
H      35.08000000     29.16300000     20.18800000
H      33.92600000     30.37100000     19.52700000
H      35.70020000     30.86360000     22.00590000
H      33.90320000     30.37660000     21.98740000
H      35.68390000     30.68000000     19.46510000
H      31.24500000     29.08800000     18.68100000
H      31.11700000     30.37800000     16.55200000
H      29.36400000     30.00600000     16.43900000
H      29.98200000     31.02200000     17.78500000
H      29.49180000     28.72420000     18.54620000
H      30.64830000     28.03280000     17.36110000
H      32.46000000     34.90800000     19.17700000
H      33.56400000     32.69700000     19.30000000
H      31.80600000     32.56000000     19.64400000
H      32.44800000     32.06900000     18.04000000
H      31.33610000     34.26900000     17.92820000
H      33.07160000     34.40330000     17.56200000
