5
pbedef2svp=-94.41947729867 b3lypdef2svp=-94.48370943339 b3lypvdz=-94.55905220713
C      22.67400000     36.62700000     17.20000000
N      22.04500000     35.45500000     17.17300000
H      22.29600000     37.56400000     16.82000000
H      23.65000000     36.46560000     17.68100000
H      22.61570000     34.76560000     17.61920000
