17
pbedef2svp=-288.38023245176
C      27.33100000     29.31700000     20.36400000
O      27.10100000     28.34600000     21.09700000
N      26.46500000     25.68900000     21.83300000
C      26.82600000     24.52100000     21.01200000
C      27.04300000     24.99200000     19.57100000
C      25.93100000     25.84400000     18.95900000
H      28.36380000     29.50180000     20.03350000
H      26.59060000     30.07400000     20.06620000
H      26.78200000     26.59400000     21.54900000
H      25.96700000     23.83400000     21.00400000
H      27.96900000     25.58500000     19.54900000
H      27.16400000     24.09800000     18.94200000
H      25.90600000     26.81600000     19.47400000
H      25.91410000     25.61040000     22.66390000
H      27.67130000     23.98540000     21.46870000
H      26.12640000     26.01570000     17.89020000
H      24.94360000     25.36710000     19.04650000
