18
pbedef2svp=-235.27182008753 b3lypdef2svp=-235.44777116742 b3lypvdz=-235.62482755256
C      21.02300000     31.22300000      4.78400000
C      21.86100000     31.34200000      3.47400000
C      26.13600000     35.34600000      6.64000000
C      23.81200000     34.03100000      5.67700000
C      25.81000000     35.39200000      5.26700000
C      24.62000000     34.77800000      4.85300000
H      20.13500000     30.60100000      4.60000000
H      20.70800000     32.22400000      5.11400000
H      22.03900000     32.40600000      3.26000000
H      22.82400000     30.83100000      3.61900000
H      21.64800000     30.75640000      5.55960000
H      21.34160000     30.88810000      2.61710000
H      27.00600000     35.85800000      7.02300000
H      22.94800000     33.51100000      5.29000000
H      26.45800000     35.88500000      4.55700000
H      24.31900000     34.89900000      3.82300000
H      25.47640000     34.77280000      7.30810000
H      24.07460000     33.98000000      6.74400000
