15
pbedef2svp=-233.16360887065
C      19.63400000     23.88500000     21.53100000
C      18.79100000     24.22100000     20.31300000
C      22.12600000     29.06200000     18.18300000
C      20.83500000     28.62900000     18.90400000
O      20.82100000     27.73400000     19.74900000
H      20.63700000     23.57900000     21.19900000
H      19.16000000     23.05700000     22.07800000
H      19.25900000     25.03600000     19.74100000
H      18.68500000     23.33500000     19.66900000
H      19.72700000     24.75130000     22.20250000
H      17.80630000     24.53730000     20.68760000
H      21.95700000     30.04300000     17.71400000
H      22.88480000     29.15540000     18.97390000
H      22.39300000     28.33290000     17.40380000
H      19.97480000     29.25760000     18.63040000
