6
pbedef2svp=-115.48411558706 b3lypdef2svp=-115.56241122175 b3lypvdz=-115.65381245048
C      31.74400000     38.87900000     16.29900000
O      31.73700000     40.25700000     15.82400000
H      32.36600000     38.76400000     17.19900000
H      32.61800000     40.51000000     15.57300000
H      30.68610000     38.71460000     16.55180000
H      32.11290000     38.22830000     15.49250000
