23
pbedef2svp=-254.91366346736 b3lypdef2svp=-255.11117777527 b3lypvdz=-255.29764191915
C      30.52000000     22.30000000     17.76400000
C      29.00600000     22.04300000     17.44200000
C      26.82600000     24.52100000     21.01200000
C      27.04300000     24.99200000     19.57100000
N      31.23300000     21.09000000     21.45900000
C      32.26200000     20.67000000     20.51400000
H      30.88200000     21.52100000     18.45100000
H      28.90200000     21.00100000     17.10700000
H      28.43100000     22.19000000     18.36800000
H      31.06370000     22.22990000     16.81040000
H      30.74120000     23.29180000     18.18510000
H      28.57490000     22.69440000     16.66750000
H      25.96700000     23.83400000     21.00400000
H      27.96900000     25.58500000     19.54900000
H      27.16400000     24.09800000     18.94200000
H      26.55630000     25.39350000     21.62530000
H      27.67130000     23.98540000     21.46870000
H      26.24290000     25.60510000     19.13060000
H      31.54300000     21.39500000     22.36000000
H      32.31500000     21.45700000     19.74700000
H      30.24720000     21.10220000     21.29180000
H      32.16500000     19.72420000     19.96070000
H      33.23390000     20.70250000     21.02820000
