8
pbedef2svp=-79.63914145767 b3lypdef2svp=-79.70434747192 b3lypvdz=-79.76206140593
C      38.69300000     34.10600000     17.59500000
C      38.47100000     35.54600000     17.04500000
H      38.14400000     33.41300000     16.94100000
H      38.76200000     36.27900000     17.81200000
H      39.08700000     35.69300000     16.14500000
H      39.75750000     33.83520000     17.53530000
H      38.30300000     33.98190000     18.61600000
H      37.41040000     35.68620000     16.78910000
