18
pbedef2svp=-326.48665071098 b3lypdef2svp=-326.70157053535 b3lypvdz=-326.95184833765
C      27.57400000     18.19200000     14.56300000
C      26.48200000     19.28000000     14.43200000
O      25.60900000     19.38800000     15.28700000
C      27.29900000     17.05500000     13.53300000
C      28.23600000     15.86400000     13.55800000
N      26.58500000     20.06300000     13.37800000
C      25.59400000     21.10900000     13.07200000
H      28.56000000     18.63600000     14.36100000
H      27.28300000     17.48700000     12.52200000
H      27.93200000     15.14100000     12.78700000
H      29.26400000     16.20200000     13.35900000
H      28.19300000     15.38400000     14.54700000
H      27.36400000     19.94300000     12.76300000
H      25.51600000     21.80500000     13.92000000
H      27.52640000     17.81830000     15.59650000
H      26.28680000     16.72790000     13.81300000
H      24.61890000     20.62400000     12.91710000
H      25.94320000     21.66420000     12.18890000
