13
pbedef2svp=-323.03985967793
C      24.24100000     20.43600000     12.85700000
O      23.26400000     20.95100000     13.32900000
N      19.99300000     20.88400000     14.04900000
C      19.06500000     21.35200000     12.99900000
C      19.44200000     22.74500000     12.51000000
O      18.57100000     23.61000000     12.28900000
H      25.21610000     20.92100000     13.01190000
H      24.24020000     19.45520000     12.35890000
H      20.50600000     20.03400000     13.92400000
H      19.16200000     20.67100000     12.14100000
H      20.10630000     21.42070000     14.88520000
H      18.01610000     21.30240000     13.32660000
H      20.50640000     22.92780000     12.30130000
