25
pbedef2svp=-276.92263469795
C      24.57700000     25.19000000     19.07900000
C      25.93100000     25.84400000     18.95900000
C      24.12300000     24.98100000     14.19500000
C      22.66200000     24.81900000     13.69900000
C      22.08500000     22.25400000     16.58100000
C      22.94500000     21.95100000     17.78500000
C      24.27200000     21.54400000     17.64400000
H      23.81400000     25.84000000     18.62600000
H      24.59000000     24.22100000     18.55800000
H      24.33900000     25.03100000     20.14100000
H      25.90600000     26.81600000     19.47400000
H      26.73110000     25.23090000     19.39940000
H      26.12640000     26.01570000     17.89020000
H      24.12300000     25.19500000     15.27400000
H      24.68000000     24.05100000     14.00600000
H      24.60300000     25.81200000     13.65700000
H      22.10700000     25.74900000     13.89000000
H      22.18400000     23.98900000     14.23900000
H      22.65350000     24.60490000     12.62010000
H      22.74300000     22.39600000     15.71100000
H      21.52900000     23.18300000     16.77600000
H      24.69800000     21.42900000     16.65800000
H      21.36190000     21.45970000     16.34380000
H      22.54370000     22.11370000     18.79620000
H      24.88530000     21.34030000     18.53410000
