7
pbedef2svp=-153.52262506397 b3lypdef2svp=-153.62228117403 b3lypvdz=-153.7440519489
C      41.84500000     36.55000000     32.68600000
C      41.25100000     37.94100000     32.58800000
O      41.10200000     38.52300000     31.50000000
H      41.81600000     36.24100000     33.74100000
H      42.89000000     36.60100000     32.34800000
H      41.33150000     35.78050000     32.09090000
H      40.99680000     38.38360000     33.56240000
