13
pbedef2svp=-323.03727300182 b3lypdef2svp=-323.24054230864 b3lypvdz=-323.49805522689
C      24.18400000     16.01600000     16.61900000
O      25.30300000     15.89400000     17.15200000
N      27.51000000     17.68900000     15.95400000
C      27.57400000     18.19200000     14.56300000
C      26.48200000     19.28000000     14.43200000
O      25.60900000     19.38800000     15.28700000
H      23.65580000     16.97670000     16.70810000
H      23.65440000     15.22930000     16.06170000
H      26.75900000     17.07400000     16.19600000
H      28.56000000     18.63600000     14.36100000
H      28.17060000     17.92570000     16.66650000
H      27.37990000     17.38960000     13.83610000
H      26.56800000     19.93400000     13.55170000
