16
pbedef2svp=-304.43576786819
N      27.51000000     17.68900000     15.95400000
C      27.57400000     18.19200000     14.56300000
N      31.51000000     18.93600000     12.85200000
C      31.39800000     19.06400000     14.28600000
C      30.49100000     19.16200000     12.04000000
O      29.36700000     19.52300000     12.44100000
H      26.75900000     17.07400000     16.19600000
H      28.56000000     18.63600000     14.36100000
H      28.17060000     17.92570000     16.66650000
H      26.79760000     18.96560000     14.46990000
H      27.37990000     17.38960000     13.83610000
H      32.38900000     18.66700000     12.45900000
H      30.40500000     18.73500000     14.62700000
H      31.53670000     20.12320000     14.54850000
H      32.16550000     18.45290000     14.78340000
H      30.71360000     19.10430000     10.96430000
