13
pbedef2svp=-377.18816345391 b3lypdef2svp=-377.41100957318 b3lypvdz=-377.70893012022
C      39.07600000     34.93100000     29.03100000
O      38.29700000     34.94600000     29.99600000
N      40.29400000     34.41200000     29.04500000
C      36.67100000     34.29600000     27.08900000
O      37.30500000     33.23300000     26.79500000
N      37.19700000     35.39700000     27.51300000
C      38.66800000     35.50200000     27.68000000
H      40.83900000     34.43500000     28.20700000
H      36.61300000     36.17900000     27.72900000
H      39.13700000     34.87600000     26.90700000
H      40.68740000     33.99760000     29.86570000
H      35.58340000     34.20810000     26.95000000
H      38.96580000     36.54220000     27.48190000
