11
pbedef2svp=-321.90003678797 b3lypdef2svp=-322.09197853641 b3lypvdz=-322.34849830851
N      39.65500000     34.33500000     11.28500000
C      39.67600000     35.54700000     12.07200000
C      40.67500000     35.52700000     13.20000000
O      40.81400000     36.52800000     13.91100000
C      39.83700000     34.27100000      9.99500000
O      40.16400000     35.32300000      9.34500000
H      39.48700000     33.47600000     11.76900000
H      39.91600000     36.39600000     11.41500000
H      38.68860000     35.73720000     12.51800000
H      41.20850000     34.58460000     13.39280000
H      39.81560000     33.32660000      9.43140000
