10
pbedef2svp=-192.68791162266
C      23.81200000     34.03100000      5.67700000
C      24.14700000     33.96600000      7.03800000
C      21.46600000     30.95300000      7.26100000
O      21.06600000     32.11200000      7.53300000
H      22.94800000     33.51100000      5.29000000
H      23.51900000     33.41800000      7.72500000
H      24.45850000     34.62870000      5.01770000
H      25.05090000     34.47540000      7.40320000
H      21.78930000     30.66710000      6.24920000
H      21.63880000     30.18940000      8.03370000
