13
pbedef2svp=-323.0942456266 b3lypdef2svp=-323.29639344719 b3lypvdz=-323.55270926419
C      26.10000000     29.25300000      5.20200000
O      24.86500000     29.02400000      5.33000000
N      22.09900000     29.16300000      5.60500000
C      21.65600000     26.84700000      5.24000000
C      21.12700000     28.24000000      5.57400000
O      19.95800000     28.46500000      5.84200000
H      26.64200000     29.08530000      4.25960000
H      26.72220000     29.58780000      6.04510000
H      23.03200000     28.85400000      5.42200000
H      22.70900000     26.81500000      5.55600000
H      21.96560000     30.13540000      5.79670000
H      21.09940000     26.09800000      5.82240000
H      21.63790000     26.69890000      4.15020000
