7
pbedef2svp=-153.52150460663 b3lypdef2svp=-153.6212355959 b3lypvdz=-153.74309764424
O      40.86200000     39.57500000     36.25100000
C      40.37300000     39.81300000     33.94400000
C      40.03100000     39.99200000     35.43200000
H      41.10400000     40.57500000     33.63700000
H      39.46000000     39.91500000     33.33800000
H      40.80170000     38.80970000     33.80410000
H      39.06230000     40.46220000     35.65700000
