22
pbedef2svp=-328.80248628103
N      29.42600000     38.43000000     15.44600000
C      30.22500000     38.64300000     16.66200000
C      29.18300000     39.72200000     21.58100000
C      29.30800000     39.75000000     23.09500000
C      29.80100000     34.14500000     18.82900000
C      30.05200000     35.04200000     20.00400000
O      30.10500000     36.30500000     19.78800000
H      29.59100000     38.99300000     14.63600000
H      30.16200000     37.75100000     17.30200000
H      28.71830000     37.72380000     15.42680000
H      29.82170000     39.50280000     17.21700000
H      31.28290000     38.80740000     16.40920000
H      29.62800000     38.78600000     21.21200000
H      28.76600000     38.89400000     23.52400000
H      30.37000000     39.69000000     23.37600000
H      28.87900000     40.68700000     23.48100000
H      29.71460000     40.56560000     21.11660000
H      28.11290000     39.72130000     21.32630000
H      29.80100000     33.10000000     19.17200000
H      28.83900000     34.37270000     18.34650000
H      30.59150000     34.25680000     18.07230000
H      30.11320000     34.60920000     21.01340000
