17
pbedef2svp=-342.49473034142 b3lypdef2svp=-342.71292955443 b3lypvdz=-342.97703691032
N      26.55900000     20.22000000      7.28800000
C      25.82900000     19.82500000      8.49400000
C      26.54100000     18.73200000      9.25100000
O      26.33300000     18.53600000     10.45700000
N      27.36100000     17.95900000      8.55900000
C      28.05400000     16.83500000      9.21000000
C      28.52300000     15.82000000      8.18200000
H      25.66900000     20.69300000      9.15000000
H      27.51100000     18.13900000      7.58700000
H      27.36300000     16.33700000      9.90600000
H      29.36700000     15.25300000      8.60200000
H      27.69400000     15.13200000      7.95800000
H      27.51430000     20.51490000      7.30920000
H      25.98970000     20.14450000      6.46940000
H      24.86060000     19.47400000      8.10810000
H      28.93070000     17.18670000      9.77360000
H      28.84830000     16.30070000      7.24760000
