17
pbedef2svp=-342.49429187081 b3lypdef2svp=-342.71158115131 b3lypvdz=-342.97578165569
N      33.54800000     21.52600000     16.95000000
C      35.03100000     21.72200000     17.06900000
C      35.61500000     22.19000000     15.75900000
O      36.53200000     23.04600000     15.72400000
C      35.66700000     20.38300000     17.44700000
N      35.13900000     21.62400000     14.66200000
C      35.59000000     21.94500000     13.30200000
H      33.14600000     20.63400000     17.15600000
H      35.24600000     22.46200000     17.85400000
H      35.07400000     19.98200000     18.28200000
H      35.55700000     19.72700000     16.57100000
H      34.42500000     20.93200000     14.76600000
H      36.68700000     21.87000000     13.28900000
H      32.95960000     22.28290000     16.66570000
H      36.72140000     20.31800000     17.75370000
H      35.33660000     22.97950000     13.02700000
H      35.21250000     21.23590000     12.55060000
