12
pbedef2svp=-607.88176821248 b3lypdef2svp=-608.14150932066 b3lypvdz=-608.43327512425
C      25.35300000     24.86000000      5.13400000
S      23.93000000     23.95900000      5.90400000
C      29.27900000     23.22700000      5.64100000
O      28.47800000     23.52200000      4.72500000
N      29.38000000     22.05700000      6.23200000
H      26.29500000     24.33800000      5.35600000
H      25.40300000     25.88800000      5.52200000
H      25.17680000     24.87460000      4.04830000
H      24.31650000     23.97770000      7.18690000
H      30.12100000     21.92300000      6.89000000
H      30.00160000     23.95610000      6.03630000
H      28.75700000     21.29400000      6.05990000
