14
pbedef2svp=-361.13791472186 b3lypdef2svp=-361.35755114056 b3lypvdz=-361.64376205719
C      35.59600000     26.71500000     15.73600000
C      36.97500000     26.82600000     15.10700000
O      37.57900000     27.92600000     15.15900000
N      37.49900000     25.74300000     14.57100000
C      38.79400000     25.76100000     13.88000000
C      38.72800000     26.59100000     12.61100000
O      39.70400000     27.34600000     12.27700000
H      35.14500000     27.71800000     15.76300000
H      36.99800000     24.88000000     14.63700000
H      39.53500000     26.22600000     14.54600000
H      34.95080000     26.04660000     15.14690000
H      35.68160000     26.34670000     16.76900000
H      39.14480000     24.74290000     13.65570000
H      37.81870000     26.55110000     11.99320000
