16
pbedef2svp=-362.33896438269 b3lypdef2svp=-362.56892953588 b3lypvdz=-362.8541807876
C      36.01200000     30.86000000     19.22100000
C      36.08300000     30.19400000     17.87500000
O      35.04800000     29.70200000     17.39300000
N      37.22800000     30.12600000     17.23300000
C      40.22600000     33.71600000     17.50900000
C      40.44900000     32.27800000     17.94500000
O      39.93600000     31.33600000     17.31500000
H      35.81700000     31.93400000     19.08500000
H      36.97000000     30.72500000     19.74400000
H      37.27600000     29.67300000     16.34300000
H      38.05100000     30.52700000     17.63500000
H      35.20410000     30.41700000     19.82190000
H      40.79400000     34.38800000     18.16900000
H      40.53700000     33.86550000     16.46450000
H      39.16150000     33.98680000     17.56870000
H      41.06180000     32.11820000     18.84440000
