18
pbedef2svp=-326.48992661455 b3lypdef2svp=-326.7044752897 b3lypvdz=-326.95474247723
C      25.03400000     30.17000000     20.40100000
C      24.10100000     30.14900000     19.19600000
O      24.19600000     30.94800000     18.28700000
C      24.63900000     31.42600000     21.28600000
C      25.64600000     31.67000000     22.42100000
N      23.14100000     29.18700000     19.24100000
C      22.12600000     29.06200000     18.18300000
H      24.85900000     29.26400000     21.00000000
H      24.67100000     32.30400000     20.62400000
H      26.63000000     31.89000000     21.98200000
H      25.30900000     32.53200000     23.01600000
H      23.12400000     28.54900000     20.01100000
H      21.95700000     30.04300000     17.71400000
H      26.09140000     30.21680000     20.10160000
H      23.60990000     31.34340000     21.66570000
H      25.73940000     30.79640000     23.08290000
H      21.20430000     28.75290000     18.69770000
H      22.39300000     28.33290000     17.40380000
