18
pbedef2svp=-326.483866585 b3lypdef2svp=-326.69796509877 b3lypvdz=-326.94862582654
C      30.47900000     35.36900000     22.37400000
C      31.90100000     34.91000000     22.72800000
O      32.19000000     33.69600000     22.63500000
C      29.47200000     35.18100000     23.49800000
N      32.76300000     35.83100000     23.09000000
C      34.14500000     35.47200000     23.48100000
C      35.11400000     36.56400000     22.90700000
H      30.50500000     36.43000000     22.08400000
H      29.51300000     34.11600000     23.77100000
H      32.48200000     36.79100000     23.10200000
H      34.41100000     34.50500000     23.02800000
H      34.52600000     37.42200000     22.55000000
H      35.80200000     36.89500000     23.69900000
H      30.21720000     34.75240000     21.50150000
H      29.72350000     35.74030000     24.41120000
H      28.43580000     35.37980000     23.18710000
H      34.21370000     35.38510000     24.57540000
H      35.69410000     36.14600000     22.07110000
