14
pbedef2svp=-249.16018328113 b3lypdef2svp=-249.32985953016 b3lypvdz=-249.52471040207
C      20.83500000     28.62900000     18.90400000
O      20.82100000     27.73400000     19.74900000
C      19.63400000     23.88500000     21.53100000
C      18.79100000     24.22100000     20.31300000
N      17.44000000     24.65500000     20.82700000
H      21.75670000     28.93810000     18.38930000
H      19.97480000     29.25760000     18.63040000
H      20.63700000     23.57900000     21.19900000
H      19.16000000     23.05700000     22.07800000
H      19.25900000     25.03600000     19.74100000
H      18.68500000     23.33500000     19.66900000
H      16.84800000     24.88700000     20.05500000
H      17.02800000     23.91000000     21.35100000
H      19.72700000     24.75130000     22.20250000
