14
pbedef2svp=-249.21341566166
C      35.70800000     30.77600000     13.80600000
C      34.22800000     30.63000000     13.31900000
N      37.49900000     25.74300000     14.57100000
C      36.97500000     26.82600000     15.10700000
O      37.57900000     27.92600000     15.15900000
H      35.89000000     29.98800000     14.55100000
H      33.94700000     31.51600000     12.73100000
H      34.13500000     29.73000000     12.69300000
H      36.42890000     30.63080000     12.98790000
H      35.82630000     31.74690000     14.30930000
H      33.56150000     30.54100000     14.18960000
H      36.99800000     24.88000000     14.63700000
H      38.38120000     25.75530000     14.10030000
H      35.97690000     26.74570000     15.56230000
