24
pbedef2svp=-238.91759939055
C      31.28800000     22.20100000     16.41700000
C      30.52000000     22.30000000     17.76400000
C      31.15200000     24.42100000     12.47700000
C      32.06000000     25.25700000     13.36400000
C      27.42600000     22.61600000     11.90200000
C      27.38000000     23.72100000     12.95500000
H      30.85300000     22.93800000     15.72600000
H      30.88200000     21.52100000     18.45100000
H      31.15610000     21.19280000     15.99730000
H      32.35780000     22.42960000     16.53200000
H      29.45860000     22.11980000     17.53830000
H      30.74120000     23.29180000     18.18510000
H      30.10600000     24.56300000     12.78500000
H      31.27200000     24.73600000     11.43000000
H      31.42200000     23.35900000     12.57400000
H      31.94400000     24.89900000     14.39800000
H      33.11820000     25.14210000     13.08670000
H      31.79120000     26.32350000     13.34830000
H      28.23400000     21.90500000     12.13000000
H      28.35200000     24.23400000     12.99200000
H      26.59400000     24.44400000     12.69300000
H      27.16100000     23.28100000     13.93900000
H      26.46010000     22.09200000     11.85230000
H      27.63490000     23.13470000     10.95470000
