13
pbedef2svp=-268.99907321924
C      24.18400000     16.01600000     16.61900000
O      25.30300000     15.89400000     17.15200000
C      27.57400000     18.19200000     14.56300000
C      27.29900000     17.05500000     13.53300000
O      25.92500000     16.61100000     13.91300000
H      23.65580000     16.97670000     16.70810000
H      23.65440000     15.22930000     16.06170000
H      28.56000000     18.63600000     14.36100000
H      27.28300000     17.48700000     12.52200000
H      25.65000000     15.90600000     13.33900000
H      27.52640000     17.81830000     15.59650000
H      26.79760000     18.96560000     14.46990000
H      27.97910000     16.19060000     13.55110000
