14
pbedef2svp=-361.11706398768 b3lypdef2svp=-361.33655200366 b3lypvdz=-361.622563227
C      31.40900000     32.68000000      6.44600000
O      32.61900000     32.81200000      6.12500000
N      30.88400000     31.48500000      6.66600000
C      31.67700000     30.27500000      6.63900000
C      31.02200000     29.28800000      5.66500000
O      29.80900000     29.39500000      5.54500000
C      31.56200000     29.68600000      8.04500000
H      29.90500000     31.41600000      6.85800000
H      32.72700000     30.46400000      6.36900000
H      30.84400000     30.34400000      8.55700000
H      31.10600000     28.69700000      7.88900000
H      30.74920000     33.55880000      6.49420000
H      31.70340000     28.55290000      5.21190000
H      32.34920000     29.50780000      8.79240000
