15
pbedef2svp=-233.14812974744
C      40.67500000     35.52700000     13.20000000
O      40.81400000     36.52800000     13.91100000
C      40.22600000     33.71600000     17.50900000
C      38.69300000     34.10600000     17.59500000
C      38.47100000     35.54600000     17.04500000
H      39.94580000     35.54160000     12.37660000
H      41.20850000     34.58460000     13.39280000
H      40.79400000     34.38800000     18.16900000
H      38.14400000     33.41300000     16.94100000
H      38.76200000     36.27900000     17.81200000
H      39.08700000     35.69300000     16.14500000
H      40.53700000     33.86550000     16.46450000
H      40.38750000     32.67470000     17.82470000
H      38.30300000     33.98190000     18.61600000
H      37.41040000     35.68620000     16.78910000
