16
pbedef2svp=-362.31544408243
O      23.57900000     31.32100000      9.55400000
C      22.50400000     31.22800000     10.13600000
C      26.85000000     29.02100000      3.89800000
C      26.10000000     29.25300000      5.20200000
O      24.86500000     29.02400000      5.33000000
N      26.84900000     29.65600000      6.21700000
C      26.23500000     30.05800000      7.49700000
H      21.73270000     30.53490000      9.76920000
H      22.28250000     31.77120000     11.06650000
H      27.91400000     28.87800000      4.13600000
H      27.84300000     29.68800000      6.11500000
H      25.16500000     30.24200000      7.32000000
H      26.47150000     28.10150000      3.42760000
H      26.76460000     29.84380000      3.17300000
H      26.69170000     31.02500000      7.75460000
H      26.31330000     29.33410000      8.32150000
