8
pbedef2svp=-79.63680924407 b3lypdef2svp=-79.70194716315 b3lypvdz=-79.75961774569
C      25.14900000     31.60900000     14.98000000
C      26.31000000     30.59400000     14.96700000
H      24.28500000     31.20800000     15.53000000
H      27.23500000     31.16400000     14.79900000
H      26.34200000     30.12800000     15.96300000
H      24.87990000     31.91780000     13.95910000
H      25.54030000     32.51210000     15.47110000
H      26.29540000     29.77810000     14.22940000
