11
pbedef2svp=-118.85309440542 b3lypdef2svp=-118.94540989227 b3lypvdz=-119.03268468424
C      41.46100000     30.75100000     19.59400000
C      42.19500000     31.14200000     20.91300000
C      42.90400000     32.41400000     20.55300000
H      42.11200000     30.14800000     18.94400000
H      41.47600000     31.30900000     21.72900000
H      42.91200000     30.36200000     21.21000000
H      43.23600000     32.95400000     21.45200000
H      43.76900000     32.21800000     19.90300000
H      41.25790000     31.74700000     19.17360000
H      40.52370000     30.22540000     19.82890000
H      42.12220000     32.97330000     20.01830000
