27
pbedef2svp=-278.14581846134 b3lypdef2svp=-278.36594070558 b3lypvdz=-278.5680163574
C      33.30600000     34.38100000      9.84000000
C      34.53500000     34.02800000     10.72000000
C      32.63100000     29.44400000      9.06000000
C      33.81400000     30.39000000      9.03000000
C      36.35100000     33.61300000      7.83800000
C      36.32200000     32.94400000      6.47700000
C      37.22000000     32.82200000      8.82700000
H      32.43400000     33.80800000     10.18800000
H      33.52200000     34.12000000      8.79300000
H      34.74500000     32.95100000     10.64200000
H      35.41000000     34.59800000     10.37300000
H      34.32100000     34.28500000     11.76800000
H      33.08340000     35.45610000      9.90730000
H      33.02000000     28.42800000      8.89700000
H      34.52800000     30.11100000      9.81900000
H      34.30900000     30.32700000      8.05000000
H      33.46500000     31.41900000      9.19900000
H      31.84380000     29.62220000      8.31260000
H      32.14020000     29.44760000     10.04440000
H      35.32500000     33.67300000      8.23000000
H      36.76200000     34.62700000      7.73100000
H      37.34000000     32.64900000      6.18200000
H      35.67700000     32.05300000      6.51000000
H      36.84100000     31.79300000      8.91200000
H      37.19200000     33.30600000      9.81400000
H      35.91890000     33.67240000      5.75800000
H      38.25370000     32.80640000      8.45130000
