12
pbedef2svp=-248.03324026582 b3lypdef2svp=-248.19114397611 b3lypvdz=-248.38371493383
C      42.34500000     34.26900000     14.43100000
C      41.94900000     34.07600000     15.84200000
O      42.82900000     34.00000000     16.73900000
N      40.64200000     33.91600000     16.11200000
C      40.22600000     33.71600000     17.50900000
H      42.96700000     33.40700000     14.14900000
H      42.95000000     35.18700000     14.38800000
H      39.96500000     33.93300000     15.37700000
H      40.79400000     34.38800000     18.16900000
H      41.55910000     34.36380000     13.66720000
H      40.38750000     32.67470000     17.82470000
H      39.16150000     33.98680000     17.56870000
