8
pbedef2svp=-79.63874634096 b3lypdef2svp=-79.70394382209 b3lypvdz=-79.76163975328
C      26.92600000     18.19100000     18.89200000
C      26.62100000     17.79900000     20.35200000
H      27.14900000     19.26800000     18.86300000
H      26.03200000     17.98500000     18.28500000
H      27.54500000     17.79200000     20.94900000
H      25.90200000     18.50300000     20.79700000
H      27.77560000     17.65050000     18.44920000
H      26.18900000     16.78870000     20.30110000
