7
pbedef2svp=-95.63761518146 b3lypdef2svp=-95.70712259911 b3lypvdz=-95.77853279579
N      25.62100000     32.94500000     16.95000000
C      26.17900000     34.12700000     17.65000000
H      25.18900000     32.20800000     17.47000000
H      26.36900000     34.95900000     16.95600000
H      25.68090000     32.89130000     15.95320000
H      27.11220000     33.78430000     18.12090000
H      25.49380000     34.43800000     18.45240000
