20
pbedef2svp=-327.60041682976
C      24.18400000     16.01600000     16.61900000
O      25.30300000     15.89400000     17.15200000
C      26.92600000     18.19100000     18.89200000
C      26.62100000     17.79900000     20.35200000
C      26.01000000     16.37000000     20.28000000
N      29.34000000     17.59400000     19.07600000
C      28.10800000     17.43900000     18.27600000
H      23.65580000     16.97670000     16.70810000
H      23.65440000     15.22930000     16.06170000
H      27.14900000     19.26800000     18.86300000
H      26.03200000     17.98500000     18.28500000
H      27.54500000     17.79200000     20.94900000
H      25.90200000     18.50300000     20.79700000
H      25.04200000     16.33600000     20.80100000
H      25.87400000     16.05900000     19.23400000
H      29.44000000     18.40200000     19.65700000
H      27.85100000     16.37300000     18.19200000
H      26.74420000     15.72400000     20.78370000
H      30.07790000     16.91940000     19.05720000
H      28.30110000     17.84390000     17.27160000
