15
pbedef2svp=-233.16033967759
C      24.29900000     20.13400000      6.70400000
C      25.71400000     20.10800000      6.07300000
C      29.72800000     19.75500000      4.06000000
C      28.75400000     20.06100000      2.97800000
O      27.54600000     19.99200000      2.98500000
H      23.56000000     19.67000000      6.03400000
H      23.98900000     21.16400000      6.93600000
H      25.90100000     19.16700000      5.53500000
H      25.87000000     20.95700000      5.39100000
H      24.42420000     19.54320000      7.62340000
H      26.34030000     20.19100000      6.97350000
H      30.51000000     20.52800000      4.02300000
H      30.17100000     18.77400000      3.83200000
H      29.35920000     19.71350000      5.09550000
H      29.25650000     20.37350000      2.05070000
