6
pbedef2svp=-169.57360004353 b3lypdef2svp=-169.67569492131 b3lypvdz=-169.81005784133
N      20.92400000     25.86200000      6.00600000
C      20.82200000     25.91400000      7.33200000
O      21.32300000     26.83000000      8.00800000
H      20.47700000     25.11200000      5.51900000
H      21.43000000     26.54290000      5.47650000
H      20.28940000     25.09390000      7.83580000
