8
pbedef2svp=-79.63942409674 b3lypdef2svp=-79.70466990261 b3lypvdz=-79.76231469923
C      21.65600000     26.84700000      5.24000000
C      21.63100000     26.64200000      3.73100000
H      22.70900000     26.81500000      5.55600000
H      22.06200000     27.53200000      3.24900000
H      22.24200000     25.76100000      3.48700000
H      21.09940000     26.09800000      5.82240000
H      21.27490000     27.85040000      5.48060000
H      20.61700000     26.48570000      3.33430000
