9
pbedef2svp=-208.75375649867 b3lypdef2svp=-208.88557364711 b3lypvdz=-209.0520266347
N      27.34000000     24.43000000      2.61400000
C      26.26600000     25.41300000      2.84200000
C      26.91300000     26.63900000      3.53100000
O      27.88600000     26.46300000      4.26300000
H      26.96100000     23.61900000      2.16800000
H      28.04300000     24.83400000      2.02900000
H      25.88000000     25.74300000      1.86700000
H      25.42290000     25.02360000      3.43160000
H      26.42360000     27.59660000      3.29980000
