14
pbedef2svp=-361.14270804861 b3lypdef2svp=-361.36410163211 b3lypvdz=-361.64958815624
C      30.22500000     38.64300000     16.66200000
C      29.66400000     39.83900000     17.43400000
O      28.85000000     40.56500000     16.85900000
N      30.13200000     40.06900000     18.64200000
C      29.60700000     41.18000000     19.46700000
C      30.07500000     42.53800000     18.98400000
O      29.58600000     43.57000000     19.48300000
H      30.16200000     37.75100000     17.30200000
H      30.85500000     39.48300000     19.00900000
H      28.51100000     41.16800000     19.37000000
H      29.62730000     38.48370000     15.75240000
H      31.28290000     38.80740000     16.40920000
H      29.83110000     40.97170000     20.52360000
H      30.82350000     42.56500000     18.17830000
