10
pbedef2svp=-283.85974095794
C      24.24100000     20.43600000     12.85700000
O      23.26400000     20.95100000     13.32900000
N      20.71700000     22.96400000     12.26000000
C      19.44200000     22.74500000     12.51000000
O      18.57100000     23.61000000     12.28900000
H      25.21610000     20.92100000     13.01190000
H      24.24020000     19.45520000     12.35890000
H      21.38500000     22.24600000     12.45600000
H      21.02970000     23.83380000     11.87830000
H      19.16980000     21.73940000     12.86300000
