14
pbedef2svp=-303.26343868166 b3lypdef2svp=-303.4531454416 b3lypvdz=-303.68811166598
N      31.23300000     21.09000000     21.45900000
C      32.26200000     20.67000000     20.51400000
C      32.12800000     19.36400000     19.75000000
O      32.54600000     19.31700000     18.55800000
N      31.69700000     18.31100000     20.40600000
C      31.56800000     16.96200000     19.82500000
H      31.54300000     21.39500000     22.36000000
H      32.31500000     21.45700000     19.74700000
H      31.43900000     18.43200000     21.36400000
H      32.42200000     16.80400000     19.15000000
H      31.61200000     16.23500000     20.64900000
H      30.24720000     21.10220000     21.29180000
H      33.23390000     20.70250000     21.02820000
H      30.64790000     16.76740000     19.25440000
