8
pbedef2svp=-79.63917986857 b3lypdef2svp=-79.70444165577 b3lypvdz=-79.76207461785
C      21.55000000     26.79600000     23.13300000
C      21.24200000     25.51900000     22.39100000
H      21.34400000     26.67500000     24.20700000
H      21.51100000     25.66300000     21.33400000
H      21.85900000     24.71600000     22.82000000
H      20.98910000     27.64600000     22.71730000
H      22.61870000     27.00390000     22.97580000
H      20.18890000     25.20450000     22.43650000
