11
pbedef2svp=-264.04018799097 b3lypdef2svp=-264.20204056314 b3lypvdz=-264.4084615892
N      38.88300000     30.11000000     13.71300000
C      40.26900000     30.50800000     14.11500000
C      41.09200000     30.80800000     12.85100000
O      41.82800000     31.80800000     12.68100000
N      41.00100000     29.87800000     11.93100000
H      38.52700000     29.20100000     13.93100000
H      40.23000000     31.41000000     14.74400000
H      40.44300000     29.06500000     12.10000000
H      38.32150000     30.77540000     13.22100000
H      40.79390000     29.70730000     14.65650000
H      41.48510000     29.97520000     11.06140000
