14
pbedef2svp=-398.21530651223 b3lypdef2svp=-398.45525271538 b3lypvdz=-398.77216942311
C      35.54100000     21.41800000     10.87100000
O      36.77200000     21.62300000     10.67600000
N      34.62800000     21.59500000      9.92000000
C      31.92300000     20.43600000      8.75500000
O      32.49300000     19.37400000      8.45600000
O      31.83800000     21.40200000      7.96800000
C      31.15500000     20.51500000     10.04800000
H      34.90700000     21.90100000      9.01000000
H      33.66300000     21.42200000     10.11500000
H      35.19910000     21.08760000     11.86290000
H      32.26600000     21.18200000      7.14900000
H      30.22700000     21.08200000      9.88300000
H      31.76900000     21.02800000     10.80200000
H      30.90260000     19.50820000     10.41220000
