16
pbedef2svp=-362.33091800056
C      31.40900000     32.68000000      6.44600000
O      32.61900000     32.81200000      6.12500000
N      30.88400000     31.48500000      6.66600000
C      30.50500000     33.88400000      6.51200000
C      26.77200000     33.43600000      9.19700000
C      27.15100000     33.36200000     10.65000000
O      26.35000000     32.77800000     11.39500000
H      29.90500000     31.41600000      6.85800000
H      29.59500000     33.63500000      7.07700000
H      31.43200000     30.64880000      6.64730000
H      31.04940000     34.69580000      7.01660000
H      30.21620000     34.23900000      5.51170000
H      27.66100000     33.67200000      8.59400000
H      26.36600000     32.46180000      8.88710000
H      25.99930000     34.19790000      9.01690000
H      28.06890000     33.84290000     11.01910000
