15
pbedef2svp=-287.25492876293 b3lypdef2svp=-287.44092536918 b3lypvdz=-287.66237335361
C      30.95500000     35.21100000      8.45900000
O      30.02500000     34.61800000      9.04000000
C      32.99500000     35.88300000      9.93400000
C      33.30600000     34.38100000      9.84000000
N      31.24400000     34.98600000      7.19700000
C      31.72000000     36.28900000      9.17600000
H      33.82000000     36.38500000      9.40700000
H      32.43400000     33.80800000     10.18800000
H      33.52200000     34.12000000      8.79300000
H      31.93100000     35.53000000      6.71500000
H      32.03600000     37.01200000      8.41000000
H      33.07410000     36.22850000     10.97530000
H      34.17690000     34.13080000     10.46360000
H      30.74910000     34.24800000      6.73830000
H      31.03820000     36.82410000      9.85340000
