15
pbedef2svp=-287.2064501097
C      21.32500000     28.81300000     15.00500000
C      20.36900000     28.64800000     14.00100000
N      24.79000000     32.02100000     13.61800000
C      25.14900000     31.60900000     14.98000000
C      23.50900000     32.22400000     13.29000000
O      22.54400000     31.94200000     14.03400000
H      21.97400000     29.67600000     14.99200000
H      20.22700000     29.39700000     13.23600000
H      21.42110000     28.06910000     15.80960000
H      19.76570000     27.72830000     14.01650000
H      25.50600000     32.15100000     12.93200000
H      24.28500000     31.20800000     15.53000000
H      25.54030000     32.51210000     15.47110000
H      25.97710000     30.88500000     14.97070000
H      23.29520000     32.61130000     12.28290000
