13
pbedef2svp=-194.87017140796 b3lypdef2svp=-195.00900638778 b3lypvdz=-195.15714462911
C      22.08500000     22.25400000     16.58100000
C      22.94500000     21.95100000     17.78500000
C      24.27200000     21.54400000     17.64400000
C      25.05200000     21.28500000     18.77600000
C      24.51700000     21.47000000     20.03000000
H      22.74300000     22.39600000     15.71100000
H      21.52900000     23.18300000     16.77600000
H      24.69800000     21.42900000     16.65800000
H      26.07000000     20.94100000     18.66600000
H      21.36190000     21.45970000     16.34380000
H      22.54370000     22.11370000     18.79620000
H      23.48040000     21.81500000     20.15790000
H      25.09870000     21.33630000     20.95400000
