16
pbedef2svp=-325.259227333 b3lypdef2svp=-325.46905080459 b3lypvdz=-325.72175622637
C      26.17900000     34.12700000     17.65000000
C      27.47500000     33.65100000     18.30400000
O      27.50700000     32.58700000     18.95800000
C      25.21400000     34.56500000     18.78000000
C      23.97800000     35.12100000     18.12600000
C      22.82400000     34.51400000     17.78200000
N      28.52500000     34.44700000     18.18900000
H      26.36900000     34.95900000     16.95600000
H      24.95100000     33.70000000     19.40600000
H      25.69000000     35.33700000     19.40200000
H      22.56500000     33.48000000     17.95500000
H      28.44200000     35.28300000     17.64600000
H      25.76500000     33.25010000     17.13070000
H      23.87700000     36.18030000     17.84720000
H      22.19620000     35.27230000     17.29120000
H      29.39950000     34.24000000     18.62760000
