14
pbedef2svp=-361.13601425032 b3lypdef2svp=-361.35532123498 b3lypvdz=-361.64091127702
C      21.46000000     18.73700000     16.16300000
O      20.49700000     18.50600000     16.90000000
C      23.46100000     17.33100000     16.74100000
C      22.22900000     18.24400000     13.32500000
O      20.96300000     18.25300000     13.39500000
N      22.99700000     17.97800000     14.36600000
C      22.41800000     17.63800000     15.69300000
H      24.21600000     18.13000000     16.70200000
H      22.96200000     17.34600000     17.72100000
H      23.99100000     18.00600000     14.25900000
H      21.81600000     16.72700000     15.56300000
H      21.78600000     19.76470000     15.94510000
H      23.98920000     16.37030000     16.65190000
H      22.73440000     18.49050000     12.37960000
