8
pbedef2svp=-79.64029138199 b3lypdef2svp=-79.70552432644 b3lypvdz=-79.7632435553
C      33.30600000     34.38100000      9.84000000
C      34.53500000     34.02800000     10.72000000
H      32.43400000     33.80800000     10.18800000
H      33.52200000     34.12000000      8.79300000
H      34.74500000     32.95100000     10.64200000
H      35.41000000     34.59800000     10.37300000
H      34.32100000     34.28500000     11.76800000
H      33.08340000     35.45610000      9.90730000
