7
pbedef2svp=-153.51978455434 b3lypdef2svp=-153.61968110973 b3lypvdz=-153.74144079896
C      29.54200000     39.02000000     10.65300000
C      30.49400000     38.26100000      9.72900000
O      30.84900000     38.85000000      8.70600000
H      29.47700000     38.47800000     11.60800000
H      30.00500000     40.00260000     10.82670000
H      28.53770000     39.04040000     10.20460000
H      30.74240000     37.23280000     10.03100000
