24
pbedef2svp=-238.91772227131
C      32.63100000     29.44400000      9.06000000
C      33.81400000     30.39000000      9.03000000
C      33.53300000     25.09700000     12.97800000
C      32.06000000     25.25700000     13.36400000
C      34.75800000     25.28000000      8.90000000
C      34.79300000     24.26400000      7.76700000
H      33.02000000     28.42800000      8.89700000
H      34.52800000     30.11100000      9.81900000
H      34.30900000     30.32700000      8.05000000
H      33.46500000     31.41900000      9.19900000
H      31.84380000     29.62220000      8.31260000
H      32.14020000     29.44760000     10.04440000
H      33.61300000     25.28200000     11.89700000
H      31.94400000     24.89900000     14.39800000
H      33.89050000     24.07720000     13.18320000
H      34.18780000     25.81960000     13.48710000
H      31.79120000     26.32350000     13.34830000
H      31.40290000     24.65200000     12.72210000
H      34.16900000     24.86400000      9.73100000
H      34.27900000     26.20100000      8.53600000
H      35.65600000     23.59600000      7.90900000
H      33.86500000     23.67300000      7.78500000
H      35.76530000     25.52550000      9.26750000
H      34.88200000     24.76430000      6.79140000
