21
pbedef2svp=-311.61807291125
C      29.01500000     21.65700000     22.28800000
C      29.94200000     21.10600000     21.24000000
O      29.47000000     20.67700000     20.19000000
C      28.34800000     20.54000000     23.06600000
C      30.83200000     23.69900000     18.35800000
C      30.52000000     22.30000000     17.76400000
C      29.00600000     22.04300000     17.44200000
H      29.58400000     22.29400000     22.98200000
H      27.77300000     21.00700000     23.87900000
H      27.66000000     20.02800000     22.37700000
H      28.21680000     22.24540000     21.81190000
H      31.02640000     21.09260000     21.42400000
H      28.98750000     19.76900000     23.52050000
H      30.30700000     23.81600000     19.31800000
H      31.91600000     23.79500000     18.51900000
H      30.49400000     24.47800000     17.65800000
H      30.88200000     21.52100000     18.45100000
H      28.90200000     21.00100000     17.10700000
H      28.43100000     22.19000000     18.36800000
H      31.06370000     22.22990000     16.81040000
H      28.57490000     22.69440000     16.66750000
