14
pbedef2svp=-517.9449544147 b3lypdef2svp=-518.16788835784 b3lypvdz=-518.38263868082
C      25.35300000     24.86000000      5.13400000
S      23.93000000     23.95900000      5.90400000
C      26.34400000     29.05000000      8.64500000
C      25.49100000     27.77100000      8.28700000
H      26.29500000     24.33800000      5.35600000
H      25.40300000     25.88800000      5.52200000
H      25.17680000     24.87460000      4.04830000
H      24.31650000     23.97770000      7.18690000
H      25.87900000     29.50700000      9.53100000
H      25.56300000     27.04000000      9.10600000
H      24.43900000     28.06000000      8.14500000
H      25.87600000     27.32100000      7.36000000
H      26.26570000     29.77390000      7.82050000
H      27.39250000     28.83400000      8.89820000
