13
pbedef2svp=-174.07568854338 b3lypdef2svp=-174.20022517616 b3lypvdz=-174.3299120173
C      31.56200000     29.68600000      8.04500000
C      32.63100000     29.44400000      9.06000000
N      30.88400000     31.48500000      6.66600000
C      31.67700000     30.27500000      6.63900000
H      30.84400000     30.34400000      8.55700000
H      31.10600000     28.69700000      7.88900000
H      33.02000000     28.42800000      8.89700000
H      29.90500000     31.41600000      6.85800000
H      32.72700000     30.46400000      6.36900000
H      33.48990000     30.13090000      9.03820000
H      32.14020000     29.44760000     10.04440000
H      31.28060000     32.38780000      6.49980000
H      31.20720000     29.56700000      5.94040000
