15
pbedef2svp=-287.26247637556 b3lypdef2svp=-287.44833204211 b3lypvdz=-287.66995854229
C      36.73100000     30.57000000     12.64500000
C      38.14800000     30.98100000     13.06900000
O      38.54400000     32.15000000     12.85600000
C      35.70800000     30.77600000     13.80600000
C      35.87400000     32.13800000     14.51200000
N      38.88300000     30.11000000     13.71300000
H      36.42300000     31.20600000     11.80200000
H      35.89000000     29.98800000     14.55100000
H      35.13000000     32.22700000     15.31700000
H      36.88600000     32.20900000     14.93800000
H      35.72500000     32.94900000     13.78400000
H      38.52700000     29.20100000     13.93100000
H      36.79070000     29.52500000     12.30690000
H      34.66770000     30.67340000     13.46370000
H      39.80890000     30.37590000     13.98150000
