8
pbedef2svp=-79.63981699353 b3lypdef2svp=-79.70501548361 b3lypvdz=-79.76275543992
C      27.96700000     28.08700000     10.41700000
C      27.81000000     28.74800000      8.99900000
H      29.03100000     27.89400000     10.61600000
H      27.56800000     28.76600000     11.18400000
H      27.41100000     27.13800000     10.44300000
H      28.22100000     28.06200000      8.24300000
H      28.37700000     29.69100000      8.98500000
H      26.76150000     28.96400000      8.74580000
