13
pbedef2svp=-323.09253713734
C      26.48200000     19.28000000     14.43200000
O      25.60900000     19.38800000     15.28700000
C      21.46000000     18.73700000     16.16300000
O      20.49700000     18.50600000     16.90000000
N      21.84600000     19.95400000     15.90500000
C      22.41800000     17.63800000     15.69300000
H      27.25840000     18.50640000     14.52510000
H      26.56800000     19.93400000     13.55170000
H      22.72300000     20.07900000     15.44100000
H      21.81600000     16.72700000     15.56300000
H      21.32120000     20.77160000     16.14170000
H      22.84630000     17.88950000     14.71150000
H      23.17780000     17.41440000     16.45640000
