16
pbedef2svp=-159.27187274939 b3lypdef2svp=-159.4009237701 b3lypvdz=-159.5163642799
C      30.52000000     22.30000000     17.76400000
C      29.00600000     22.04300000     17.44200000
C      32.26200000     20.67000000     20.51400000
C      33.63800000     20.71600000     21.24200000
H      30.88200000     21.52100000     18.45100000
H      28.90200000     21.00100000     17.10700000
H      28.43100000     22.19000000     18.36800000
H      31.06370000     22.22990000     16.81040000
H      30.74120000     23.29180000     18.18510000
H      28.57490000     22.69440000     16.66750000
H      32.31500000     21.45700000     19.74700000
H      33.51900000     20.30000000     22.25300000
H      34.35900000     20.10600000     20.67800000
H      31.48610000     20.98670000     21.22650000
H      32.16500000     19.72420000     19.96070000
H      34.02710000     21.74170000     21.32330000
