11
pbedef2svp=-118.86704763864 b3lypdef2svp=-118.96016719973 b3lypvdz=-119.04692466194
C      29.47200000     35.18100000     23.49800000
C      28.04900000     35.45400000     23.07100000
C      30.47900000     35.36900000     22.37400000
H      29.51300000     34.11600000     23.77100000
H      27.37300000     35.30100000     23.92600000
H      27.96500000     36.49300000     22.71900000
H      27.77200000     34.76700000     22.25700000
H      30.50500000     36.43000000     22.08400000
H      29.72350000     35.74030000     24.41120000
H      30.21720000     34.75240000     21.50150000
H      31.49760000     35.04020000     22.62760000
