19
pbedef2svp=-347.44772873289
C      31.59300000     20.55300000     14.65500000
O      32.15900000     21.31100000     13.86100000
C      35.59000000     21.94500000     13.30200000
C      35.06400000     20.95700000     12.25500000
C      31.92300000     20.43600000      8.75500000
O      32.49300000     19.37400000      8.45600000
C      31.15500000     20.51500000     10.04800000
H      31.45430000     19.49380000     14.39250000
H      31.19710000     20.80870000     15.64890000
H      36.68700000     21.87000000     13.28900000
H      35.45300000     19.95000000     12.46600000
H      33.96400000     20.93800000     12.28200000
H      35.25210000     21.70450000     14.32080000
H      35.33660000     22.97950000     13.02700000
H      35.40590000     21.28740000     11.26310000
H      30.22700000     21.08200000      9.88300000
H      31.76900000     21.02800000     10.80200000
H      31.84810000     21.28680000      8.06180000
H      30.90260000     19.50820000     10.41220000
