16
pbedef2svp=-159.27304273091 b3lypdef2svp=-159.40197321868 b3lypvdz=-159.51738590816
C      30.83200000     23.69900000     18.35800000
C      30.52000000     22.30000000     17.76400000
C      32.26200000     20.67000000     20.51400000
C      33.63800000     20.71600000     21.24200000
H      30.30700000     23.81600000     19.31800000
H      31.91600000     23.79500000     18.51900000
H      30.49400000     24.47800000     17.65800000
H      30.88200000     21.52100000     18.45100000
H      31.06370000     22.22990000     16.81040000
H      29.45860000     22.11980000     17.53830000
H      32.31500000     21.45700000     19.74700000
H      33.51900000     20.30000000     22.25300000
H      34.35900000     20.10600000     20.67800000
H      31.48610000     20.98670000     21.22650000
H      32.16500000     19.72420000     19.96070000
H      34.02710000     21.74170000     21.32330000
