7
pbedef2svp=-95.63853502531 b3lypdef2svp=-95.70799051901 b3lypvdz=-95.77938042714
N      41.00100000     29.87800000     11.93100000
C      41.71800000     30.02200000     10.64300000
H      40.44300000     29.06500000     12.10000000
H      42.79800000     30.00900000     10.85200000
H      41.07040000     30.58720000     12.63260000
H      41.48610000     30.97850000     10.15170000
H      41.48780000     29.12870000     10.04380000
