14
pbedef2svp=-249.15061454721 b3lypdef2svp=-249.31787359192 b3lypvdz=-249.51168944132
C      22.22900000     18.24400000     13.32500000
O      20.96300000     18.25300000     13.39500000
N      19.99300000     20.88400000     14.04900000
C      19.06500000     21.35200000     12.99900000
C      17.58600000     21.28200000     13.46100000
H      22.73440000     18.49050000     12.37960000
H      22.86870000     18.02250000     14.19200000
H      20.50600000     20.03400000     13.92400000
H      19.16200000     20.67100000     12.14100000
H      17.45300000     20.36800000     14.05800000
H      17.37700000     22.16200000     14.08700000
H      20.10630000     21.42070000     14.88520000
H      19.33720000     22.35760000     12.64600000
H      16.85880000     21.26470000     12.63590000
