11
pbedef2svp=-118.86667685105 b3lypdef2svp=-118.95979932418 b3lypvdz=-119.04664606496
C      29.18300000     39.72200000     21.58100000
C      29.30800000     39.75000000     23.09500000
C      29.91900000     40.89000000     20.93800000
H      29.62800000     38.78600000     21.21200000
H      28.76600000     38.89400000     23.52400000
H      30.37000000     39.69000000     23.37600000
H      28.87900000     40.68700000     23.48100000
H      30.99700000     40.68600000     21.01500000
H      29.67500000     41.79500000     21.51400000
H      28.11290000     39.72130000     21.32630000
H      29.69490000     41.09830000     19.88140000
