11
pbedef2svp=-209.92210821289 b3lypdef2svp=-210.06351858659 b3lypvdz=-210.22748886374
C      24.10100000     30.14900000     19.19600000
O      24.19600000     30.94800000     18.28700000
N      25.62100000     32.94500000     16.95000000
C      26.17900000     34.12700000     17.65000000
H      24.77440000     30.16420000     20.06570000
H      23.32440000     29.37080000     19.23240000
H      25.18900000     32.20800000     17.47000000
H      26.36900000     34.95900000     16.95600000
H      25.68090000     32.89130000     15.95320000
H      27.11220000     33.78430000     18.12090000
H      25.49380000     34.43800000     18.45240000
