11
pbedef2svp=-118.86295809415 b3lypdef2svp=-118.95607418048 b3lypvdz=-119.04288414108
C      41.65100000     32.52900000     29.92300000
C      41.60800000     31.44400000     30.98900000
C      40.87300000     33.80200000     30.25300000
H      41.23700000     32.10900000     28.99400000
H      42.70300000     32.80600000     29.76300000
H      42.35500000     31.68200000     31.76000000
H      40.60500000     31.43800000     31.44000000
H      40.05800000     33.53600000     30.94300000
H      41.82030000     30.43870000     30.59620000
H      40.44030000     34.25790000     29.35020000
H      41.51610000     34.54240000     30.75120000
