17
pbedef2svp=-342.4894173567 b3lypdef2svp=-342.70852281094 b3lypvdz=-342.97210386647
N      20.80100000     27.93100000     22.57800000
C      21.55000000     26.79600000     23.13300000
C      23.04600000     27.08700000     22.91300000
O      23.38300000     27.62700000     21.87000000
N      23.88000000     26.72700000     23.85100000
C      25.34900000     26.87200000     23.64300000
C      26.07000000     27.02500000     24.96000000
H      20.84300000     28.09900000     21.59300000
H      21.34400000     26.67500000     24.20700000
H      23.53200000     26.35300000     24.71100000
H      25.55800000     27.73800000     22.99800000
H      25.61000000     27.84000000     25.53800000
H      25.99900000     26.08600000     25.52900000
H      20.25100000     28.54230000     23.14710000
H      21.32540000     25.86490000     22.59200000
H      25.63300000     25.94500000     23.12330000
H      27.12760000     27.26110000     24.77100000
