18
pbedef2svp=-214.51178510662
C      32.34500000     34.18300000     18.35800000
C      32.55500000     32.78300000     18.87000000
C      34.73800000     30.87500000     21.47300000
C      34.87600000     30.23700000     20.06600000
N      36.00000000     30.86000000     22.17200000
H      32.46000000     34.90800000     19.17700000
H      33.56400000     32.69700000     19.30000000
H      31.80600000     32.56000000     19.64400000
H      32.44800000     32.06900000     18.04000000
H      31.33610000     34.26900000     17.92820000
H      33.07160000     34.40330000     17.56200000
H      34.44500000     31.92400000     21.31900000
H      35.08000000     29.16300000     20.18800000
H      33.92600000     30.37100000     19.52700000
H      36.65600000     30.13900000     21.94800000
H      33.90320000     30.37660000     21.98740000
H      35.68390000     30.68000000     19.46510000
H      36.25420000     31.53120000     22.86830000
