8
pbedef2svp=-79.63735211406 b3lypdef2svp=-79.70240682913 b3lypvdz=-79.76015198128
C      32.99500000     35.88300000      9.93400000
C      33.10900000     36.38100000     11.43500000
H      33.82000000     36.38500000      9.40700000
H      34.05800000     36.03000000     11.86700000
H      33.08000000     37.48000000     11.46000000
H      32.26900000     35.97900000     12.02000000
H      32.08300000     36.17340000      9.39180000
H      33.21760000     34.80790000      9.86670000
