16
pbedef2svp=-325.25843399596 b3lypdef2svp=-325.46847914816 b3lypvdz=-325.72054776356
C      21.44700000     27.86900000     16.02600000
C      20.63800000     26.73500000     16.05300000
C      24.10100000     30.14900000     19.19600000
O      24.19600000     30.94800000     18.28700000
N      23.14100000     29.18700000     19.24100000
C      22.12600000     29.06200000     18.18300000
C      22.49400000     28.05700000     17.10900000
H      20.75100000     26.00800000     16.84400000
H      23.12400000     28.54900000     20.01100000
H      21.95700000     30.04300000     17.71400000
H      23.42500000     28.39400000     16.63000000
H      22.66300000     27.08400000     17.59400000
H      21.35090000     28.61290000     15.22140000
H      19.88410000     26.58120000     15.26690000
H      24.77440000     30.16420000     20.06570000
H      21.20430000     28.75290000     18.69770000
