15
pbedef2svp=-233.16619302424
C      35.92600000     35.97900000     21.73700000
C      35.00300000     35.08400000     20.92000000
C      36.33400000     31.74200000     23.08700000
O      35.57400000     32.61800000     23.48300000
C      37.73800000     31.63700000     23.71200000
H      36.73600000     35.36100000     22.15200000
H      35.56200000     34.65300000     20.07600000
H      34.62000000     34.27400000     21.55700000
H      34.16100000     35.67900000     20.53700000
H      35.34590000     36.39700000     22.57290000
H      36.36930000     36.78820000     21.13810000
H      37.65300000     31.71100000     24.80600000
H      36.05440000     31.00370000     22.32100000
H      38.24310000     30.69940000     23.43680000
H      38.30060000     32.50360000     23.33460000
