16
pbedef2svp=-399.34992226277
O      33.77800000     18.73900000     14.51600000
C      32.49200000     18.19300000     14.99500000
C      32.12800000     19.36400000     19.75000000
O      32.54600000     19.31700000     18.55800000
N      35.13900000     21.62400000     14.66200000
C      35.61500000     22.19000000     15.75900000
O      36.53200000     23.04600000     15.72400000
H      34.49400000     18.25400000     14.90900000
H      32.40300000     18.31600000     16.08500000
H      31.72450000     18.80410000     14.49760000
H      32.39220000     17.12890000     14.73480000
H      32.22500000     20.30980000     20.30330000
H      31.76700000     18.48210000     20.29940000
H      34.42500000     20.93200000     14.76600000
H      35.44610000     21.84260000     13.73580000
H      35.18920000     21.84880000     16.71410000
