18
pbedef2svp=-272.37711252333
C      36.08300000     30.19400000     17.87500000
O      35.04800000     29.70200000     17.39300000
C      34.50900000     26.07700000     19.36000000
C      35.59600000     26.71500000     15.73600000
C      35.71500000     26.20300000     17.17200000
C      34.34300000     26.44500000     17.89800000
H      36.03110000     30.68130000     18.85980000
H      37.04120000     30.13710000     17.33770000
H      34.78800000     25.01600000     19.43700000
H      35.30300000     26.69700000     19.80200000
H      35.14500000     27.71800000     15.76300000
H      35.94800000     25.12800000     17.16500000
H      36.51400000     26.74800000     17.69600000
H      34.05700000     27.50400000     17.81100000
H      33.56400000     25.81600000     17.44200000
H      33.57070000     26.24550000     19.90870000
H      34.95080000     26.04660000     15.14690000
H      36.59410000     26.79530000     15.28070000
