9
pbedef2svp=-208.75010278438 b3lypdef2svp=-208.8816270277 b3lypvdz=-209.04624621602
N      26.84900000     29.65600000      6.21700000
C      26.23500000     30.05800000      7.49700000
C      26.88200000     31.42800000      7.86200000
O      27.90600000     31.71100000      7.26400000
H      27.84300000     29.68800000      6.11500000
H      25.16500000     30.24200000      7.32000000
H      26.28340000     29.35170000      5.45050000
H      26.31330000     29.33410000      8.32150000
H      26.32170000     31.98910000      8.62440000
