14
pbedef2svp=-307.04643518587
C      40.22600000     33.71600000     17.50900000
C      40.44900000     32.27800000     17.94500000
O      39.93600000     31.33600000     17.31500000
O      42.77000000     27.65500000     15.90600000
C      42.44500000     29.84800000     15.18200000
C      43.09000000     28.82800000     16.09500000
H      40.79400000     34.38800000     18.16900000
H      40.53700000     33.86550000     16.46450000
H      39.16150000     33.98680000     17.56870000
H      41.06180000     32.11820000     18.84440000
H      43.02100000     29.92200000     14.24800000
H      42.42600000     30.82900000     15.68000000
H      41.41650000     29.52930000     14.95700000
H      43.76290000     29.18110000     16.89030000
