14
pbedef2svp=-158.08717563487 b3lypdef2svp=-158.20809735701 b3lypvdz=-158.32421844658
C      21.55000000     26.79600000     23.13300000
C      21.24200000     25.51900000     22.39100000
C      19.76200000     25.07700000     22.45500000
C      19.63400000     23.88500000     21.53100000
H      21.34400000     26.67500000     24.20700000
H      21.51100000     25.66300000     21.33400000
H      21.85900000     24.71600000     22.82000000
H      19.49400000     24.79200000     23.48300000
H      19.10600000     25.89300000     22.11700000
H      20.63700000     23.57900000     21.19900000
H      19.16000000     23.05700000     22.07800000
H      20.98910000     27.64600000     22.71730000
H      22.61870000     27.00390000     22.97580000
H      19.02350000     24.12830000     20.64890000
