14
pbedef2svp=-249.21286504346
C      31.39800000     19.06400000     14.28600000
C      32.49200000     18.19300000     14.99500000
C      28.37500000     17.99900000     16.88700000
O      29.32600000     18.78600000     16.69000000
N      27.51000000     17.68900000     15.95400000
H      30.40500000     18.73500000     14.62700000
H      32.40300000     18.31600000     16.08500000
H      31.48330000     18.96650000     13.19370000
H      31.53670000     20.12320000     14.54850000
H      33.44980000     18.59970000     14.63820000
H      32.39220000     17.12890000     14.73480000
H      26.75900000     17.07400000     16.19600000
H      28.18190000     17.59410000     17.89140000
H      27.55320000     18.02870000     15.01450000
