17
pbedef2svp=-342.49446941852 b3lypdef2svp=-342.71368033139 b3lypvdz=-342.97734835982
N      26.58500000     20.06300000     13.37800000
C      25.59400000     21.10900000     13.07200000
C      24.24100000     20.43600000     12.85700000
O      23.26400000     20.95100000     13.32900000
N      24.24000000     19.23300000     12.24600000
C      22.92400000     18.58300000     12.02500000
C      23.05900000     17.32600000     11.15400000
H      27.36400000     19.94300000     12.76300000
H      25.51600000     21.80500000     13.92000000
H      25.09100000     18.79700000     11.95400000
H      22.28300000     19.29200000     11.48000000
H      22.06600000     16.87100000     11.02100000
H      23.46700000     17.60900000     10.17200000
H      26.50680000     19.46850000     14.17830000
H      25.94320000     21.66420000     12.18890000
H      22.41860000     18.33650000     12.97040000
H      23.73100000     16.59430000     11.62630000
