15
pbedef2svp=-378.31208794457
C      29.27900000     23.22700000      5.64100000
O      28.47800000     23.52200000      4.72500000
N      29.38000000     22.05700000      6.23200000
N      27.34000000     24.43000000      2.61400000
C      26.26600000     25.41300000      2.84200000
C      26.91300000     26.63900000      3.53100000
O      27.88600000     26.46300000      4.26300000
H      30.12100000     21.92300000      6.89000000
H      30.00160000     23.95610000      6.03630000
H      28.75700000     21.29400000      6.05990000
H      26.96100000     23.61900000      2.16800000
H      28.04300000     24.83400000      2.02900000
H      25.88000000     25.74300000      1.86700000
H      25.42290000     25.02360000      3.43160000
H      26.42360000     27.59660000      3.29980000
