14
pbedef2svp=-249.21299064764
C      38.52800000     32.85400000     23.18200000
C      39.91900000     32.85400000     23.84000000
C      40.16800000     30.02600000     19.91800000
O      39.26400000     30.66200000     20.52100000
N      40.05900000     28.75800000     19.60700000
H      38.63400000     32.78100000     22.09000000
H      37.99600000     33.78200000     23.43800000
H      39.79500000     32.89900000     24.93200000
H      40.44000000     31.92400000     23.56800000
H      37.96540000     31.98740000     23.55940000
H      40.52860000     33.71070000     23.51670000
H      41.10530000     30.55160000     19.68310000
H      39.21520000     28.25660000     19.79860000
H      40.71650000     28.18600000     19.11660000
