16
pbedef2svp=-159.2782627764
C      25.03400000     30.17000000     20.40100000
C      24.63900000     31.42600000     21.28600000
C      25.34900000     26.87200000     23.64300000
C      26.07000000     27.02500000     24.96000000
H      24.85900000     29.26400000     21.00000000
H      24.67100000     32.30400000     20.62400000
H      26.09140000     30.21680000     20.10160000
H      24.36060000     30.15480000     19.53130000
H      25.35980000     31.60060000     22.09840000
H      23.60990000     31.34340000     21.66570000
H      25.55800000     27.73800000     22.99800000
H      25.61000000     27.84000000     25.53800000
H      25.99900000     26.08600000     25.52900000
H      24.26500000     26.76500000     23.79650000
H      25.63300000     25.94500000     23.12330000
H      27.12760000     27.26110000     24.77100000
