16
pbedef2svp=-159.28032177843 b3lypdef2svp=-159.40982449521 b3lypvdz=-159.52516196281
C      32.34500000     34.18300000     18.35800000
C      33.36100000     34.49100000     17.24500000
C      35.92600000     35.97900000     21.73700000
C      35.00300000     35.08400000     20.92000000
H      32.46000000     34.90800000     19.17700000
H      34.38200000     34.41200000     17.64800000
H      33.23400000     33.77100000     16.42300000
H      33.19300000     35.51100000     16.86800000
H      31.33610000     34.26900000     17.92820000
H      32.49840000     33.16000000     18.73210000
H      36.73600000     35.36100000     22.15200000
H      35.56200000     34.65300000     20.07600000
H      34.62000000     34.27400000     21.55700000
H      34.16100000     35.67900000     20.53700000
H      35.34590000     36.39700000     22.57290000
H      36.36930000     36.78820000     21.13810000
