12
pbedef2svp=-193.92316296583
C      32.77600000     22.51900000     16.57700000
O      33.23300000     23.65900000     16.38400000
C      31.15200000     24.42100000     12.47700000
C      32.06000000     25.25700000     13.36400000
H      31.70620000     22.29040000     16.46200000
H      33.42330000     21.68640000     16.88970000
H      30.10600000     24.56300000     12.78500000
H      31.27200000     24.73600000     11.43000000
H      31.42200000     23.35900000     12.57400000
H      31.94400000     24.89900000     14.39800000
H      33.11820000     25.14210000     13.08670000
H      31.79120000     26.32350000     13.34830000
