17
pbedef2svp=-342.48755365498 b3lypdef2svp=-342.7051563778 b3lypvdz=-342.9690821156
N      26.84900000     29.65600000      6.21700000
C      26.23500000     30.05800000      7.49700000
C      26.88200000     31.42800000      7.86200000
O      27.90600000     31.71100000      7.26400000
C      26.34400000     29.05000000      8.64500000
N      26.21400000     32.09700000      8.77100000
C      26.77200000     33.43600000      9.19700000
H      27.84300000     29.68800000      6.11500000
H      25.16500000     30.24200000      7.32000000
H      25.87900000     29.50700000      9.53100000
H      25.36900000     31.73600000      9.16600000
H      27.66100000     33.67200000      8.59400000
H      26.28340000     29.35170000      5.45050000
H      27.39250000     28.83400000      8.89820000
H      25.74960000     28.15870000      8.39550000
H      27.04930000     33.38190000     10.26010000
H      25.99930000     34.19790000      9.01690000
