16
pbedef2svp=-362.3254009421 b3lypdef2svp=-362.55527451492 b3lypvdz=-362.84045525039
N      34.93000000     34.38400000     25.45100000
C      34.23900000     35.35300000     24.97900000
O      33.70700000     36.19700000     25.72800000
C      36.33400000     31.74200000     23.08700000
O      35.57400000     32.61800000     23.48300000
C      38.52800000     32.85400000     23.18200000
C      37.73800000     31.63700000     23.71200000
H      35.33500000     33.73400000     24.80800000
H      35.08630000     34.24190000     26.42840000
H      34.17030000     35.43990000     23.88460000
H      38.63400000     32.78100000     22.09000000
H      37.99600000     33.78200000     23.43800000
H      37.65300000     31.71100000     24.80600000
H      36.05440000     31.00370000     22.32100000
H      39.52240000     32.85400000     23.65240000
H      38.24310000     30.69940000     23.43680000
