6
pbedef2svp=-169.57209925388 b3lypdef2svp=-169.67437627752 b3lypvdz=-169.80858714335
C      27.15100000     33.36200000     10.65000000
O      26.35000000     32.77800000     11.39500000
N      28.26000000     33.94300000     11.09600000
H      28.87600000     34.37900000     10.44000000
H      26.87370000     33.41610000      9.58690000
H      28.49810000     33.95820000     12.06710000
