15
pbedef2svp=-233.15014072742
C      18.45300000     28.94100000     20.59100000
O      17.86000000     27.99400000     21.12800000
C      21.55000000     26.79600000     23.13300000
C      21.24200000     25.51900000     22.39100000
C      19.76200000     25.07700000     22.45500000
H      18.44580000     29.08700000     19.50080000
H      19.06070000     29.67380000     21.14210000
H      21.34400000     26.67500000     24.20700000
H      21.51100000     25.66300000     21.33400000
H      21.85900000     24.71600000     22.82000000
H      19.49400000     24.79200000     23.48300000
H      19.10600000     25.89300000     22.11700000
H      20.98910000     27.64600000     22.71730000
H      22.61870000     27.00390000     22.97580000
H      19.66900000     24.21070000     21.78350000
