12
pbedef2svp=-248.03707890174 b3lypdef2svp=-248.19585378547 b3lypvdz=-248.38818979547
C      31.19100000     42.01200000     12.33100000
C      30.45900000     40.66600000     12.13000000
O      30.25300000     39.99100000     13.13300000
C      32.67200000     41.71700000     12.50500000
N      30.16300000     40.33800000     10.88600000
H      31.04300000     42.64100000     11.44100000
H      33.20000000     42.65600000     12.72600000
H      32.80100000     41.01800000     13.34500000
H      30.35300000     40.96100000     10.12800000
H      30.71680000     42.47330000     13.20980000
H      33.10360000     41.26910000     11.59780000
H      29.74210000     39.44470000     10.72810000
