16
pbedef2svp=-362.32275036128
C      20.14200000     21.59000000     15.14900000
O      19.49900000     22.64500000     15.32100000
N      19.99300000     20.88400000     14.04900000
C      25.59400000     21.10900000     13.07200000
C      24.24100000     20.43600000     12.85700000
O      23.26400000     20.95100000     13.32900000
C      26.08400000     21.88800000     11.83300000
H      20.50600000     20.03400000     13.92400000
H      20.82360000     21.26920000     15.95060000
H      19.36490000     21.20080000     13.33830000
H      25.51600000     21.80500000     13.92000000
H      26.14900000     21.16800000     11.00400000
H      25.31800000     22.64300000     11.60300000
H      26.33400000     20.32790000     13.30050000
H      24.24020000     19.45520000     12.35890000
H      27.04990000     22.41200000     11.88270000
