13
pbedef2svp=-377.18968466205 b3lypdef2svp=-377.41241154373 b3lypvdz=-377.70996003421
C      40.44900000     32.27800000     17.94500000
O      39.93600000     31.33600000     17.31500000
N      41.18900000     32.08500000     19.03100000
C      41.46100000     30.75100000     19.59400000
C      40.16800000     30.02600000     19.91800000
O      39.26400000     30.66200000     20.52100000
N      40.05900000     28.75800000     19.60700000
H      42.11200000     30.14800000     18.94400000
H      40.28750000     33.31930000     17.62930000
H      41.61300000     32.82380000     19.55480000
H      41.97880000     31.02680000     20.52450000
H      39.21520000     28.25660000     19.79860000
H      40.71650000     28.18600000     19.11660000
