8
pbedef2svp=-79.62482666802 b3lypdef2svp=-79.68956378872 b3lypvdz=-79.74719358226
C      31.56200000     29.68600000      8.04500000
C      31.67700000     30.27500000      6.63900000
H      30.84400000     30.34400000      8.55700000
H      31.10600000     28.69700000      7.88900000
H      32.72700000     30.46400000      6.36900000
H      32.34920000     29.50780000      8.79240000
H      31.07410000     31.19490000      6.65950000
H      31.20720000     29.56700000      5.94040000
