15
pbedef2svp=-378.37777974676 b3lypdef2svp=-378.61095191271 b3lypvdz=-378.90785841842
O      23.57900000     31.32100000      9.55400000
N      22.24100000     31.87300000     11.24100000
C      22.50400000     31.22800000     10.13600000
N      26.21400000     32.09700000      8.77100000
C      26.77200000     33.43600000      9.19700000
C      26.88200000     31.42800000      7.86200000
O      27.90600000     31.71100000      7.26400000
H      21.34100000     31.75600000     11.66200000
H      22.90230000     32.47850000     11.68370000
H      21.73270000     30.53490000      9.76920000
H      25.36900000     31.73600000      9.16600000
H      27.66100000     33.67200000      8.59400000
H      27.04930000     33.38190000     10.26010000
H      25.99930000     34.19790000      9.01690000
H      26.42530000     30.46100000      7.60440000
