15
pbedef2svp=-378.37524594521 b3lypdef2svp=-378.60745389984 b3lypvdz=-378.90494670684
C      36.33400000     31.74200000     23.08700000
O      35.57400000     32.61800000     23.48300000
C      34.73800000     30.87500000     21.47300000
N      36.00000000     30.86000000     22.17200000
C      38.42100000     28.04800000     21.34100000
O      37.21300000     28.03600000     21.70400000
N      39.37400000     28.09000000     22.24000000
H      34.44500000     31.92400000     21.31900000
H      36.65600000     30.13900000     21.94800000
H      37.33660000     31.66700000     23.53330000
H      33.90320000     30.37660000     21.98740000
H      34.83590000     30.42250000     20.47520000
H      40.32700000     28.14100000     21.94300000
H      38.71040000     28.02750000     20.27990000
H      39.16500000     28.07190000     23.21770000
