6
pbedef2svp=-169.57264397624 b3lypdef2svp=-169.67419825887 b3lypvdz=-169.80882509353
C      35.54100000     21.41800000     10.87100000
O      36.77200000     21.62300000     10.67600000
N      34.62800000     21.59500000      9.92000000
H      34.90700000     21.90100000      9.01000000
H      33.66300000     21.42200000     10.11500000
H      35.19910000     21.08760000     11.86290000
