16
pbedef2svp=-362.30907494098
C      30.95500000     35.21100000      8.45900000
O      30.02500000     34.61800000      9.04000000
C      26.23500000     30.05800000      7.49700000
C      26.88200000     31.42800000      7.86200000
O      27.90600000     31.71100000      7.26400000
N      26.21400000     32.09700000      8.77100000
C      26.77200000     33.43600000      9.19700000
H      31.51460000     35.99950000      8.98350000
H      31.19690000     35.02270000      7.40260000
H      25.16500000     30.24200000      7.32000000
H      25.36900000     31.73600000      9.16600000
H      27.66100000     33.67200000      8.59400000
H      26.69280000     29.75830000      6.54270000
H      26.31330000     29.33410000      8.32150000
H      27.04930000     33.38190000     10.26010000
H      25.99930000     34.19790000      9.01690000
