22
pbedef2svp=-328.80449015391
N      31.51000000     18.93600000     12.85200000
C      31.39800000     19.06400000     14.28600000
C      27.57400000     18.19200000     14.56300000
C      27.29900000     17.05500000     13.53300000
C      26.54100000     18.73200000      9.25100000
O      26.33300000     18.53600000     10.45700000
C      25.82900000     19.82500000      8.49400000
H      32.38900000     18.66700000     12.45900000
H      30.40500000     18.73500000     14.62700000
H      30.73940000     19.10690000     12.23800000
H      31.53670000     20.12320000     14.54850000
H      32.16550000     18.45290000     14.78340000
H      28.56000000     18.63600000     14.36100000
H      27.28300000     17.48700000     12.52200000
H      27.52640000     17.81830000     15.59650000
H      26.79760000     18.96560000     14.46990000
H      26.28680000     16.72790000     13.81300000
H      27.97910000     16.19060000     13.55110000
H      25.66900000     20.69300000      9.15000000
H      27.22310000     18.08900000      8.67540000
H      26.37750000     20.12180000      7.58790000
H      24.86060000     19.47400000      8.10810000
