15
pbedef2svp=-287.21942409105
C      23.81200000     34.03100000      5.67700000
C      24.62000000     34.77800000      4.85300000
N      21.67400000     30.03400000      8.19100000
C      21.90700000     30.56300000      5.88100000
C      21.46600000     30.95300000      7.26100000
O      21.06600000     32.11200000      7.53300000
H      22.94800000     33.51100000      5.29000000
H      24.31900000     34.89900000      3.82300000
H      24.07460000     33.98000000      6.74400000
H      25.55390000     35.25990000      5.17790000
H      22.02400000     29.14200000      7.90400000
H      22.89500000     31.02900000      5.75500000
H      21.50030000     30.18320000      9.16440000
H      22.05370000     29.49340000      5.67010000
H      21.28200000     31.02960000      5.10540000
