5
pbedef2svp=-40.41441524358 b3lypdef2svp=-40.45129569093 b3lypvdz=-40.47984172111
C      28.60500000     33.96500000     12.50300000
H      27.82500000     33.46000000     13.09200000
H      28.34310000     33.94830000     11.43480000
H      28.62840000     35.02800000     12.78510000
H      29.57720000     33.50110000     12.72570000
