13
pbedef2svp=-323.07517207483
C      26.91300000     26.63900000      3.53100000
O      27.88600000     26.46300000      4.26300000
O      29.80900000     29.39500000      5.54500000
N      31.83400000     28.41200000      5.12500000
C      31.22000000     27.34100000      4.27500000
C      31.02200000     29.28800000      5.66500000
H      26.45330000     25.76780000      3.04140000
H      26.42360000     27.59660000      3.29980000
H      32.82200000     28.45600000      5.27400000
H      30.13900000     27.52500000      4.18300000
H      31.38000000     26.42350000      4.86030000
H      31.66200000     27.28350000      3.26940000
H      31.49180000     29.99600000      6.36360000
