14
pbedef2svp=-361.12395075465 b3lypdef2svp=-361.34394207624 b3lypvdz=-361.62961125711
C      39.07600000     34.93100000     29.03100000
O      38.29700000     34.94600000     29.99600000
C      39.08000000     36.94100000     27.40600000
C      36.67100000     34.29600000     27.08900000
O      37.30500000     33.23300000     26.79500000
N      37.19700000     35.39700000     27.51300000
C      38.66800000     35.50200000     27.68000000
H      38.22400000     37.57700000     27.67600000
H      39.92700000     37.16400000     28.07100000
H      36.61300000     36.17900000     27.72900000
H      39.13700000     34.87600000     26.90700000
H      40.08790000     34.49980000     29.04260000
H      39.38550000     37.22990000     26.38950000
H      35.58340000     34.20810000     26.95000000
