13
pbedef2svp=-174.10069012844 b3lypdef2svp=-174.2252168321 b3lypvdz=-174.35470860348
C      25.64600000     31.67000000     22.42100000
N      26.43600000     30.23200000     20.00400000
C      25.03400000     30.17000000     20.40100000
C      24.63900000     31.42600000     21.28600000
H      26.63000000     31.89000000     21.98200000
H      25.30900000     32.53200000     23.01600000
H      26.73800000     30.99700000     19.43500000
H      24.85900000     29.26400000     21.00000000
H      24.67100000     32.30400000     20.62400000
H      25.73940000     30.79640000     23.08290000
H      27.10910000     29.54380000     20.27480000
H      24.36060000     30.15480000     19.53130000
H      23.60990000     31.34340000     21.66570000
