16
pbedef2svp=-399.33840881206
C      30.49100000     19.16200000     12.04000000
O      29.36700000     19.52300000     12.44100000
C      27.29900000     17.05500000     13.53300000
O      25.92500000     16.61100000     13.91300000
C      26.54100000     18.73200000      9.25100000
O      26.33300000     18.53600000     10.45700000
N      27.36100000     17.95900000      8.55900000
H      30.71360000     19.10430000     10.96430000
H      31.33860000     18.97400000     12.71540000
H      27.28300000     17.48700000     12.52200000
H      25.65000000     15.90600000     13.33900000
H      27.49310000     17.85740000     14.25990000
H      27.97910000     16.19060000     13.55110000
H      27.51100000     18.13900000      7.58700000
H      26.02170000     19.52920000      8.69890000
H      27.83170000     17.19550000      9.00120000
