12
pbedef2svp=-247.98308202957 b3lypdef2svp=-248.14203722928 b3lypvdz=-248.33575259843
N      40.64200000     33.91600000     16.11200000
C      40.22600000     33.71600000     17.50900000
C      40.44900000     32.27800000     17.94500000
O      39.93600000     31.33600000     17.31500000
C      38.69300000     34.10600000     17.59500000
H      39.96500000     33.93300000     15.37700000
H      40.79400000     34.38800000     18.16900000
H      38.14400000     33.41300000     16.94100000
H      41.61440000     34.03500000     15.91110000
H      41.06180000     32.11820000     18.84440000
H      38.53620000     35.12310000     17.20650000
H      38.30300000     33.98190000     18.61600000
