10
pbedef2svp=-134.86517750295 b3lypdef2svp=-134.96225999096 b3lypvdz=-135.06268361685
N      31.23300000     21.09000000     21.45900000
C      32.26200000     20.67000000     20.51400000
C      33.63800000     20.71600000     21.24200000
H      31.54300000     21.39500000     22.36000000
H      32.31500000     21.45700000     19.74700000
H      33.51900000     20.30000000     22.25300000
H      34.35900000     20.10600000     20.67800000
H      30.24720000     21.10220000     21.29180000
H      32.16500000     19.72420000     19.96070000
H      34.02710000     21.74170000     21.32330000
