16
pbedef2svp=-362.31191842754
C      30.21000000     30.50900000     21.65000000
O      29.97800000     31.72600000     21.26900000
C      30.92500000     34.30400000     17.75300000
N      30.12400000     34.53300000     21.19100000
C      29.80100000     34.14500000     18.82900000
C      30.05200000     35.04200000     20.00400000
O      30.10500000     36.30500000     19.78800000
H      30.92970000     30.37810000     22.47150000
H      29.78370000     29.62250000     21.15760000
H      30.79800000     33.52100000     16.99100000
H      30.82500000     35.29300000     17.28200000
H      29.93800000     33.55900000     21.31800000
H      29.80100000     33.10000000     19.17200000
H      31.93390000     34.21800000     18.18280000
H      30.36200000     35.09350000     21.98420000
H      28.83900000     34.37270000     18.34650000
