12
pbedef2svp=-193.91599838261
C      35.66700000     20.38300000     17.44700000
C      37.12800000     20.29300000     17.87200000
C      32.12800000     19.36400000     19.75000000
O      32.54600000     19.31700000     18.55800000
H      35.07400000     19.98200000     18.28200000
H      35.55700000     19.72700000     16.57100000
H      37.75600000     20.74400000     17.09000000
H      37.26100000     20.84600000     18.81300000
H      35.20970000     21.34580000     17.17520000
H      37.44130000     19.24960000     18.02400000
H      32.22500000     20.30980000     20.30330000
H      31.76700000     18.48210000     20.29940000
