6
pbedef2svp=-169.57531689172 b3lypdef2svp=-169.67791520953 b3lypvdz=-169.81197540309
N      27.77700000     28.58500000     26.73900000
C      28.26200000     27.57600000     26.02000000
O      29.18900000     26.84000000     26.33500000
H      28.17600000     28.80100000     27.63000000
H      27.01300000     29.12700000     26.38800000
H      27.74850000     27.41670000     25.06040000
