15
pbedef2svp=-378.37206087299 b3lypdef2svp=-378.60184275946 b3lypvdz=-378.90028189474
N      30.12400000     34.53300000     21.19100000
C      30.05200000     35.04200000     20.00400000
O      30.10500000     36.30500000     19.78800000
O      29.97800000     31.72600000     21.26900000
C      30.21000000     30.50900000     21.65000000
N      29.69400000     29.43600000     21.05400000
C      28.76200000     29.57300000     19.90600000
H      29.93800000     33.55900000     21.31800000
H      30.36200000     35.09350000     21.98420000
H      29.86790000     34.38390000     19.14200000
H      29.93800000     28.52400000     21.38400000
H      28.81600000     30.60900000     19.54100000
H      30.92970000     30.37810000     22.47150000
H      27.72920000     29.38820000     20.23650000
H      29.04300000     28.90990000     19.07460000
