8
pbedef2svp=-79.63936831823 b3lypdef2svp=-79.70455318689 b3lypvdz=-79.76226322642
C      21.18400000     24.26300000     11.69000000
C      22.65000000     24.51600000     12.17200000
H      20.53700000     25.08800000     12.02200000
H      23.21600000     23.58600000     12.01300000
H      20.84000000     23.30620000     12.10980000
H      21.13070000     24.15350000     10.59680000
H      22.65850000     24.73010000     13.25090000
H      23.16720000     25.32030000     11.62840000
