16
pbedef2svp=-159.27739167975
C      26.85000000     29.02100000      3.89800000
C      26.73300000     30.14800000      2.90500000
C      31.82700000     27.26200000      2.89400000
C      31.22000000     27.34100000      4.27500000
H      27.91400000     28.87800000      4.13600000
H      27.50800000     29.99200000      2.14000000
H      25.73900000     30.07200000      2.44000000
H      26.47150000     28.10150000      3.42760000
H      26.30800000     29.18870000      4.84040000
H      26.84270000     31.17760000      3.27620000
H      32.92200000     27.30900000      2.98900000
H      31.53900000     26.30300000      2.43900000
H      30.13900000     27.52500000      4.18300000
H      31.49770000     28.07680000      2.23250000
H      31.67060000     28.12700000      4.89880000
H      31.38000000     26.42350000      4.86030000
