25
pbedef2svp=-276.94411586011 b3lypdef2svp=-277.15560693449 b3lypvdz=-277.35836550992
C      33.30600000     34.38100000      9.84000000
C      34.53500000     34.02800000     10.72000000
C      36.35100000     33.61300000      7.83800000
C      36.32200000     32.94400000      6.47700000
C      39.80800000     32.99400000      9.23300000
C      38.61500000     32.80100000      8.32000000
C      37.22000000     32.82200000      8.82700000
H      32.43400000     33.80800000     10.18800000
H      33.52200000     34.12000000      8.79300000
H      34.74500000     32.95100000     10.64200000
H      35.41000000     34.59800000     10.37300000
H      34.32100000     34.28500000     11.76800000
H      33.08340000     35.45610000      9.90730000
H      35.32500000     33.67300000      8.23000000
H      36.76200000     34.62700000      7.73100000
H      37.34000000     32.64900000      6.18200000
H      35.67700000     32.05300000      6.51000000
H      40.65200000     33.09000000      8.53400000
H      38.67800000     33.59500000      7.56100000
H      38.75200000     31.82100000      7.83900000
H      36.84100000     31.79300000      8.91200000
H      37.19200000     33.30600000      9.81400000
H      35.91890000     33.67240000      5.75800000
H      40.03650000     32.07410000      9.79130000
H      39.82940000     33.93840000      9.79660000
