14
pbedef2svp=-249.20979294677 b3lypdef2svp=-249.37662886074 b3lypvdz=-249.56847426371
C      42.19500000     31.14200000     20.91300000
C      42.90400000     32.41400000     20.55300000
C      40.76000000     34.03600000     23.39400000
O      41.97500000     34.00800000     23.62400000
N      40.14000000     35.00700000     22.77500000
H      41.47600000     31.30900000     21.72900000
H      42.91200000     30.36200000     21.21000000
H      43.23600000     32.95400000     21.45200000
H      43.76900000     32.21800000     19.90300000
H      41.67720000     30.86620000     19.98250000
H      42.12220000     32.97330000     20.01830000
H      40.65400000     35.80100000     22.45000000
H      39.15200000     34.95500000     22.62700000
H      40.15040000     33.17930000     23.71730000
