9
pbedef2svp=-117.64149601787 b3lypdef2svp=-117.73006721895 b3lypvdz=-117.81873855367
C      22.08500000     22.25400000     16.58100000
C      22.94500000     21.95100000     17.78500000
C      24.27200000     21.54400000     17.64400000
H      22.74300000     22.39600000     15.71100000
H      21.52900000     23.18300000     16.77600000
H      24.69800000     21.42900000     16.65800000
H      21.36190000     21.45970000     16.34380000
H      22.54370000     22.11370000     18.79620000
H      24.88530000     21.34030000     18.53410000
