14
pbedef2svp=-361.08410157346 b3lypdef2svp=-361.3044706106 b3lypvdz=-361.59187790979
N      39.37400000     28.09000000     22.24000000
C      39.06300000     28.06300000     23.69500000
C      38.36500000     29.33500000     24.15900000
O      37.68400000     29.39000000     25.22100000
C      40.34000000     27.69200000     24.46800000
C      40.55900000     28.58500000     25.67500000
O      40.71600000     29.80900000     25.45600000
H      40.32700000     28.14100000     21.94300000
H      38.35200000     27.23900000     23.85600000
H      40.25700000     26.64900000     24.80900000
H      41.20300000     27.79000000     23.79400000
H      38.64700000     28.05800000     21.55420000
H      38.40990000     30.19820000     23.47870000
H      40.55030000     28.15490000     26.68740000
