17
pbedef2svp=-197.30615903558 b3lypdef2svp=-197.45431906061 b3lypvdz=-197.59941844769
C      36.35100000     33.61300000      7.83800000
C      36.32200000     32.94400000      6.47700000
C      39.80800000     32.99400000      9.23300000
C      38.61500000     32.80100000      8.32000000
C      37.22000000     32.82200000      8.82700000
H      35.32500000     33.67300000      8.23000000
H      36.76200000     34.62700000      7.73100000
H      37.34000000     32.64900000      6.18200000
H      35.67700000     32.05300000      6.51000000
H      40.65200000     33.09000000      8.53400000
H      38.67800000     33.59500000      7.56100000
H      38.75200000     31.82100000      7.83900000
H      36.84100000     31.79300000      8.91200000
H      37.19200000     33.30600000      9.81400000
H      35.91890000     33.67240000      5.75800000
H      40.03650000     32.07410000      9.79130000
H      39.82940000     33.93840000      9.79660000
