24
pbedef2svp=-238.92077452215
C      38.52800000     32.85400000     23.18200000
C      37.73800000     31.63700000     23.71200000
C      35.92600000     35.97900000     21.73700000
C      36.53300000     37.08700000     20.91700000
C      39.50200000     37.34000000     26.00200000
C      38.68400000     36.64700000     24.92300000
H      38.63400000     32.78100000     22.09000000
H      37.99600000     33.78200000     23.43800000
H      37.65300000     31.71100000     24.80600000
H      39.52240000     32.85400000     23.65240000
H      38.24310000     30.69940000     23.43680000
H      36.73540000     31.71200000     23.26570000
H      36.73600000     35.36100000     22.15200000
H      37.11000000     36.65500000     20.08600000
H      35.73300000     37.72600000     20.51500000
H      37.20000000     37.68900000     21.55100000
H      35.34590000     36.39700000     22.57290000
H      35.25950000     35.33270000     21.14700000
H      40.56300000     37.08500000     25.86300000
H      39.03200000     36.97300000     23.93200000
H      38.80500000     35.55700000     25.01400000
H      37.62200000     36.90900000     25.04300000
H      39.19650000     37.05110000     27.01850000
H      39.38330000     38.42890000     25.90130000
