18
pbedef2svp=-326.44173903172 b3lypdef2svp=-326.65549663991 b3lypvdz=-326.90747850688
N      31.11300000     20.86300000     15.86000000
C      31.28800000     22.20100000     16.41700000
C      32.77600000     22.51900000     16.57700000
O      33.23300000     23.65900000     16.38400000
C      30.52000000     22.30000000     17.76400000
C      29.00600000     22.04300000     17.44200000
C      28.40700000     22.94800000     16.36600000
H      30.62600000     20.16900000     16.39000000
H      30.85300000     22.93800000     15.72600000
H      30.88200000     21.52100000     18.45100000
H      28.90200000     21.00100000     17.10700000
H      28.43100000     22.19000000     18.36800000
H      27.34900000     22.68900000     16.21600000
H      28.48600000     23.99800000     16.68500000
H      28.95600000     22.80900000     15.42300000
H      31.47290000     20.63050000     14.95640000
H      33.42330000     21.68640000     16.88970000
H      30.74120000     23.29180000     18.18510000
