19
pbedef2svp=-289.56411267127
C      38.69300000     34.10600000     17.59500000
C      38.14600000     33.93200000     19.02700000
C      40.16800000     30.02600000     19.91800000
O      39.26400000     30.66200000     20.52100000
C      34.73800000     30.87500000     21.47300000
N      36.00000000     30.86000000     22.17200000
H      38.14400000     33.41300000     16.94100000
H      37.08200000     34.21100000     19.05000000
H      38.25700000     32.88200000     19.33700000
H      38.70900000     34.57900000     19.71600000
H      39.75750000     33.83520000     17.53530000
H      38.53620000     35.12310000     17.20650000
H      41.10530000     30.55160000     19.68310000
H      40.07650000     28.96140000     19.65690000
H      34.44500000     31.92400000     21.31900000
H      36.65600000     30.13900000     21.94800000
H      33.90320000     30.37660000     21.98740000
H      34.83590000     30.42250000     20.47520000
H      36.25420000     31.53120000     22.86830000
