6
pbedef2svp=-169.56924800973 b3lypdef2svp=-169.67180556482 b3lypvdz=-169.8060866329
C      21.46000000     18.73700000     16.16300000
O      20.49700000     18.50600000     16.90000000
N      21.84600000     19.95400000     15.90500000
H      22.72300000     20.07900000     15.44100000
H      22.14790000     17.94780000     15.82550000
H      21.32120000     20.77160000     16.14170000
