10
pbedef2svp=-134.87162922738 b3lypdef2svp=-134.96876958468 b3lypvdz=-135.06929012488
N      26.84900000     29.65600000      6.21700000
C      26.23500000     30.05800000      7.49700000
C      26.34400000     29.05000000      8.64500000
H      27.84300000     29.68800000      6.11500000
H      25.16500000     30.24200000      7.32000000
H      25.87900000     29.50700000      9.53100000
H      26.28340000     29.35170000      5.45050000
H      26.69170000     31.02500000      7.75460000
H      27.39250000     28.83400000      8.89820000
H      25.74960000     28.15870000      8.39550000
