19
pbedef2svp=-347.46178125714
C      26.92600000     18.19100000     18.89200000
C      26.62100000     17.79900000     20.35200000
C      24.51700000     21.47000000     20.03000000
C      25.05200000     21.28500000     18.77600000
C      24.18400000     16.01600000     16.61900000
O      25.30300000     15.89400000     17.15200000
O      23.57200000     15.10700000     15.97500000
H      27.14900000     19.26800000     18.86300000
H      26.03200000     17.98500000     18.28500000
H      27.54500000     17.79200000     20.94900000
H      25.90200000     18.50300000     20.79700000
H      27.77560000     17.65050000     18.44920000
H      26.18900000     16.78870000     20.30110000
H      26.07000000     20.94100000     18.66600000
H      23.48040000     21.81500000     20.15790000
H      25.09870000     21.33630000     20.95400000
H      24.43870000     21.48870000     17.88590000
H      24.10000000     14.31700000     15.96200000
H      23.65580000     16.97670000     16.70810000
