16
pbedef2svp=-362.32268151676 b3lypdef2svp=-362.55232424029 b3lypvdz=-362.83754881248
C      27.47500000     33.65100000     18.30400000
O      27.50700000     32.58700000     18.95800000
C      28.76200000     29.57300000     19.90600000
C      27.33100000     29.31700000     20.36400000
O      27.10100000     28.34600000     21.09700000
N      26.43600000     30.23200000     20.00400000
C      25.03400000     30.17000000     20.40100000
H      26.54180000     33.99370000     17.83310000
H      28.34830000     34.31300000     18.20840000
H      28.81600000     30.60900000     19.54100000
H      26.73800000     30.99700000     19.43500000
H      24.85900000     29.26400000     21.00000000
H      29.45240000     29.47150000     20.75640000
H      29.04300000     28.90990000     19.07460000
H      24.36060000     30.15480000     19.53130000
H      24.76010000     31.04090000     21.01460000
