18
pbedef2svp=-363.49265541532
C      28.63800000     35.46100000     12.90000000
O      29.52200000     36.10300000     12.32000000
C      28.11300000     39.04900000     10.01500000
C      27.58800000     37.63500000      9.71500000
C      30.95500000     35.21100000      8.45900000
O      30.02500000     34.61800000      9.04000000
N      31.24400000     34.98600000      7.19700000
H      28.61460000     34.39800000     12.61790000
H      27.88010000     35.80790000     13.61780000
H      28.15100000     39.62800000      9.08100000
H      26.58500000     37.70300000      9.26900000
H      28.26800000     37.13300000      9.01200000
H      27.53600000     37.05800000     10.65000000
H      29.11730000     39.02860000     10.46340000
H      27.48210000     39.55870000     10.75800000
H      31.93100000     35.53000000      6.71500000
H      31.51460000     35.99950000      8.98350000
H      30.74910000     34.24800000      6.73830000
