12
pbedef2svp=-248.02557972247 b3lypdef2svp=-248.18384500838 b3lypvdz=-248.37616634258
C      36.97500000     26.82600000     15.10700000
O      37.57900000     27.92600000     15.15900000
N      37.49900000     25.74300000     14.57100000
C      38.79400000     25.76100000     13.88000000
C      39.28500000     24.33600000     13.56600000
H      36.99800000     24.88000000     14.63700000
H      39.53500000     26.22600000     14.54600000
H      40.25500000     24.38700000     13.05000000
H      39.39800000     23.77200000     14.50400000
H      38.55200000     23.83000000     12.92000000
H      35.97690000     26.74570000     15.56230000
H      38.74620000     26.36250000     12.96030000
