7
pbedef2svp=-95.64002308173 b3lypdef2svp=-95.70954611726 b3lypvdz=-95.78086946919
N      29.42600000     38.43000000     15.44600000
C      30.22500000     38.64300000     16.66200000
H      29.59100000     38.99300000     14.63600000
H      30.16200000     37.75100000     17.30200000
H      28.71830000     37.72380000     15.42680000
H      29.82170000     39.50280000     17.21700000
H      31.28290000     38.80740000     16.40920000
