13
pbedef2svp=-269.00026629671
C      30.45900000     40.66600000     12.13000000
O      30.25300000     39.99100000     13.13300000
C      31.74400000     38.87900000     16.29900000
O      31.73700000     40.25700000     15.82400000
C      32.26000000     37.96900000     15.17100000
H      30.98010000     41.62410000     12.27310000
H      30.21240000     40.39270000     11.09340000
H      32.36600000     38.76400000     17.19900000
H      32.61800000     40.51000000     15.57300000
H      33.32000000     38.19100000     14.97600000
H      32.15500000     36.91600000     15.47300000
H      31.67400000     38.14900000     14.25800000
H      30.68610000     38.71460000     16.55180000
