18
pbedef2svp=-326.48112508857 b3lypdef2svp=-326.69458541566 b3lypvdz=-326.94503492422
C      31.59300000     20.55300000     14.65500000
O      32.15900000     21.31100000     13.86100000
N      31.11300000     20.86300000     15.86000000
C      31.28800000     22.20100000     16.41700000
C      30.52000000     22.30000000     17.76400000
C      29.00600000     22.04300000     17.44200000
C      30.83200000     23.69900000     18.35800000
H      30.62600000     20.16900000     16.39000000
H      30.85300000     22.93800000     15.72600000
H      30.88200000     21.52100000     18.45100000
H      28.90200000     21.00100000     17.10700000
H      28.43100000     22.19000000     18.36800000
H      30.30700000     23.81600000     19.31800000
H      31.91600000     23.79500000     18.51900000
H      30.49400000     24.47800000     17.65800000
H      31.45430000     19.49380000     14.39250000
H      32.35780000     22.42960000     16.53200000
H      28.57490000     22.69440000     16.66750000
