17
pbedef2svp=-342.49701717807 b3lypdef2svp=-342.71425436125 b3lypvdz=-342.97853073467
N      40.29400000     34.41200000     29.04500000
C      40.87300000     33.80200000     30.25300000
C      41.76500000     34.82900000     30.94400000
O      42.94500000     34.99400000     30.58300000
C      41.65100000     32.52900000     29.92300000
C      41.60800000     31.44400000     30.98900000
N      41.16500000     35.53100000     31.89800000
H      40.83900000     34.43500000     28.20700000
H      40.05800000     33.53600000     30.94300000
H      41.23700000     32.10900000     28.99400000
H      42.70300000     32.80600000     29.76300000
H      42.35500000     31.68200000     31.76000000
H      40.60500000     31.43800000     31.44000000
H      40.19900000     35.35100000     32.08500000
H      39.37410000     34.80400000     29.03440000
H      41.82030000     30.43870000     30.59620000
H      41.63180000     36.23060000     32.43900000
