7
pbedef2svp=-95.63837302012 b3lypdef2svp=-95.7078894002 b3lypvdz=-95.77924565234
N      36.81100000     29.17000000     12.19200000
C      36.73100000     30.57000000     12.64500000
H      36.39600000     28.44100000     12.73600000
H      36.42300000     31.20600000     11.80200000
H      37.28330000     28.95410000     11.33740000
H      37.74640000     30.86450000     12.94880000
H      36.01010000     30.71520000     13.46310000
