15
pbedef2svp=-287.2617073796 b3lypdef2svp=-287.44741719417 b3lypvdz=-287.66878902023
C      40.87300000     33.80200000     30.25300000
C      41.76500000     34.82900000     30.94400000
O      42.94500000     34.99400000     30.58300000
C      41.65100000     32.52900000     29.92300000
N      41.16500000     35.53100000     31.89800000
C      41.84500000     36.55000000     32.68600000
H      40.05800000     33.53600000     30.94300000
H      41.23700000     32.10900000     28.99400000
H      42.70300000     32.80600000     29.76300000
H      40.19900000     35.35100000     32.08500000
H      41.81600000     36.24100000     33.74100000
H      42.89000000     36.60100000     32.34800000
H      40.44030000     34.25790000     29.35020000
H      41.61990000     31.74470000     30.69360000
H      41.41390000     37.55950000     32.61490000
