14
pbedef2svp=-307.03436943487
C      27.33100000     29.31700000     20.36400000
O      27.10100000     28.34600000     21.09700000
C      26.07000000     27.02500000     24.96000000
C      27.55300000     27.35600000     24.69500000
C      28.26200000     27.57600000     26.02000000
O      29.18900000     26.84000000     26.33500000
H      28.36380000     29.50180000     20.03350000
H      26.59060000     30.07400000     20.06620000
H      25.61000000     27.84000000     25.53800000
H      25.99900000     26.08600000     25.52900000
H      28.02600000     26.52000000     24.15900000
H      27.62300000     28.26900000     24.08500000
H      25.54450000     26.91350000     24.00010000
H      27.86100000     28.41020000     26.61440000
