10
pbedef2svp=-192.75077571361 b3lypdef2svp=-192.87832491298 b3lypvdz=-193.02952622702
C      28.37500000     17.99900000     16.88700000
O      29.32600000     18.78600000     16.69000000
C      26.92600000     18.19100000     18.89200000
C      28.10800000     17.43900000     18.27600000
H      27.14900000     19.26800000     18.86300000
H      26.03200000     17.98500000     18.28500000
H      27.85100000     16.37300000     18.19200000
H      27.64840000     17.73860000     16.10330000
H      26.70840000     17.91140000     19.93340000
H      29.02550000     17.55440000     18.87180000
