11
pbedef2svp=-209.94748882869 b3lypdef2svp=-210.08572359903 b3lypvdz=-210.24862567434
C      21.63700000     28.92300000     10.35300000
O      20.54400000     28.04700000     10.05900000
N      21.67400000     30.03400000      8.19100000
C      21.41900000     30.25300000      9.62000000
H      22.57800000     28.46500000     10.01500000
H      21.68500000     29.10200000     11.43700000
H      20.74700000     27.53500000      9.28500000
H      22.02400000     29.14200000      7.90400000
H      20.41000000     30.65000000      9.80700000
H      21.51690000     30.72820000      7.48850000
H      22.19030000     30.94610000      9.98680000
