14
pbedef2svp=-249.15879052296
N      38.41900000     30.37300000     23.34100000
C      37.73800000     31.63700000     23.71200000
C      35.16100000     34.17400000     26.89600000
C      36.67100000     34.29600000     27.08900000
O      37.30500000     33.23300000     26.79500000
H      38.91700000     30.30600000     22.47600000
H      37.65300000     31.71100000     24.80600000
H      38.37820000     29.58820000     23.95940000
H      36.73540000     31.71200000     23.26570000
H      38.30060000     32.50360000     23.33460000
H      34.63100000     34.92600000     27.50000000
H      34.98910000     34.33030000     25.82080000
H      34.84230000     33.15910000     27.17590000
H      37.11890000     35.23360000     27.45010000
