14
pbedef2svp=-249.14684264315
C      26.88200000     31.42800000      7.86200000
O      27.90600000     31.71100000      7.26400000
C      30.09100000     34.39300000      5.07800000
N      31.24400000     34.98600000      7.19700000
C      30.50500000     33.88400000      6.51200000
H      26.42530000     30.46100000      7.60440000
H      26.32170000     31.98910000      8.62440000
H      29.47000000     33.64700000      4.56000000
H      31.93100000     35.53000000      6.71500000
H      29.59500000     33.63500000      7.07700000
H      31.09520000     34.48230000      4.63800000
H      29.60530000     35.37950000      5.10770000
H      31.02410000     35.15720000      8.15740000
H      31.16480000     33.00520000      6.46380000
