9
pbedef2svp=-208.75268304779 b3lypdef2svp=-208.8841315255 b3lypvdz=-209.04885081208
N      31.51000000     18.93600000     12.85200000
C      31.39800000     19.06400000     14.28600000
C      31.59300000     20.55300000     14.65500000
O      32.15900000     21.31100000     13.86100000
H      32.38900000     18.66700000     12.45900000
H      30.40500000     18.73500000     14.62700000
H      30.73940000     19.10690000     12.23800000
H      32.16550000     18.45290000     14.78340000
H      31.19710000     20.80870000     15.64890000
