15
pbedef2svp=-271.00168220186 b3lypdef2svp=-271.18714054937 b3lypvdz=-271.39429086812
C      22.08500000     22.25400000     16.58100000
C      22.94500000     21.95100000     17.78500000
C      24.27200000     21.54400000     17.64400000
C      22.43700000     22.15700000     19.06500000
C      25.05200000     21.28500000     18.77600000
C      23.20400000     21.90700000     20.19200000
C      24.51700000     21.47000000     20.03000000
H      22.74300000     22.39600000     15.71100000
H      21.52900000     23.18300000     16.77600000
H      24.69800000     21.42900000     16.65800000
H      21.42600000     22.51800000     19.18200000
H      26.07000000     20.94100000     18.66600000
H      22.79100000     22.04900000     21.18000000
H      21.36190000     21.45970000     16.34380000
H      25.09870000     21.33630000     20.95400000
