7
pbedef2svp=-153.51987943172 b3lypdef2svp=-153.61945195554 b3lypvdz=-153.74152976716
C      25.14900000     31.60900000     14.98000000
C      25.69800000     32.87600000     15.66900000
O      26.15800000     33.73000000     14.89400000
H      24.28500000     31.20800000     15.53000000
H      24.87990000     31.91780000     13.95910000
H      25.97710000     30.88500000     14.97070000
H      25.63210000     32.93510000     16.76540000
