16
pbedef2svp=-159.27825365478
C      29.96300000     33.31700000     12.81400000
C      29.95700000     31.83800000     12.35200000
C      32.99500000     35.88300000      9.93400000
C      33.10900000     36.38100000     11.43500000
H      30.75600000     33.85900000     12.27900000
H      30.93100000     31.37900000     12.57700000
H      29.16300000     31.29200000     12.88200000
H      29.77200000     31.79300000     11.26900000
H      28.99080000     33.78090000     12.59130000
H      30.14340000     33.37300000     13.89770000
H      33.82000000     36.38500000      9.40700000
H      34.05800000     36.03000000     11.86700000
H      33.08000000     37.48000000     11.46000000
H      32.26900000     35.97900000     12.02000000
H      32.08300000     36.17340000      9.39180000
H      33.21760000     34.80790000      9.86670000
