13
pbedef2svp=-323.10727517743 b3lypdef2svp=-323.30631405699 b3lypvdz=-323.56105377386
N      31.51000000     18.93600000     12.85200000
C      31.39800000     19.06400000     14.28600000
C      32.49200000     18.19300000     14.99500000
O      33.77800000     18.73900000     14.51600000
C      30.49100000     19.16200000     12.04000000
O      29.36700000     19.52300000     12.44100000
H      32.38900000     18.66700000     12.45900000
H      30.40500000     18.73500000     14.62700000
H      32.40300000     18.31600000     16.08500000
H      34.49400000     18.25400000     14.90900000
H      31.53670000     20.12320000     14.54850000
H      32.39220000     17.12890000     14.73480000
H      30.71360000     19.10430000     10.96430000
