18
pbedef2svp=-272.37832150015
O      23.57900000     31.32100000      9.55400000
C      22.50400000     31.22800000     10.13600000
C      27.96700000     28.08700000     10.41700000
C      26.23500000     30.05800000      7.49700000
C      26.34400000     29.05000000      8.64500000
C      27.81000000     28.74800000      8.99900000
H      21.73270000     30.53490000      9.76920000
H      22.28250000     31.77120000     11.06650000
H      29.03100000     27.89400000     10.61600000
H      27.56800000     28.76600000     11.18400000
H      27.41100000     27.13800000     10.44300000
H      25.16500000     30.24200000      7.32000000
H      25.87900000     29.50700000      9.53100000
H      28.22100000     28.06200000      8.24300000
H      28.37700000     29.69100000      8.98500000
H      26.69280000     29.75830000      6.54270000
H      26.69170000     31.02500000      7.75460000
H      25.74960000     28.15870000      8.39550000
