13
pbedef2svp=-265.21036477598
C      29.54200000     39.02000000     10.65300000
N      30.16300000     40.33800000     10.88600000
N      27.75100000     35.86700000     13.74000000
C      28.63800000     35.46100000     12.90000000
O      29.52200000     36.10300000     12.32000000
H      29.47700000     38.47800000     11.60800000
H      30.35300000     40.96100000     10.12800000
H      30.22710000     38.47380000      9.98800000
H      28.53770000     39.04040000     10.20460000
H      30.38720000     40.58650000     11.82830000
H      27.09800000     35.21600000     14.12700000
H      27.71110000     36.82960000     14.00790000
H      28.61460000     34.39800000     12.61790000
