5
pbedef2svp=-40.41339618957 b3lypdef2svp=-40.45022338453 b3lypvdz=-40.47877217605
C      26.73300000     30.14800000      2.90500000
H      27.50800000     29.99200000      2.14000000
H      25.73900000     30.07200000      2.44000000
H      26.81840000     29.32520000      3.63000000
H      26.84270000     31.17760000      3.27620000
