16
pbedef2svp=-159.26537696956
C      31.56200000     29.68600000      8.04500000
C      32.63100000     29.44400000      9.06000000
C      36.15300000     25.62000000      9.40900000
C      34.75800000     25.28000000      8.90000000
H      30.84400000     30.34400000      8.55700000
H      31.10600000     28.69700000      7.88900000
H      33.02000000     28.42800000      8.89700000
H      31.64470000     30.10980000      7.03330000
H      33.48990000     30.13090000      9.03820000
H      32.14020000     29.44760000     10.04440000
H      36.87800000     25.50100000      8.59000000
H      36.41500000     24.94000000     10.23300000
H      34.16900000     24.86400000      9.73100000
H      34.27900000     26.20100000      8.53600000
H      36.18190000     26.65820000      9.77140000
H      34.78330000     24.54580000      8.08130000
