15
pbedef2svp=-378.3746837469
N      26.58500000     20.06300000     13.37800000
C      25.59400000     21.10900000     13.07200000
C      26.48200000     19.28000000     14.43200000
O      25.60900000     19.38800000     15.28700000
C      26.54100000     18.73200000      9.25100000
O      26.33300000     18.53600000     10.45700000
N      27.36100000     17.95900000      8.55900000
H      27.36400000     19.94300000     12.76300000
H      25.51600000     21.80500000     13.92000000
H      24.61890000     20.62400000     12.91710000
H      25.94320000     21.66420000     12.18890000
H      27.25840000     18.50640000     14.52510000
H      27.51100000     18.13900000      7.58700000
H      26.02170000     19.52920000      8.69890000
H      27.83170000     17.19550000      9.00120000
