17
pbedef2svp=-342.48376715946 b3lypdef2svp=-342.70027693161 b3lypvdz=-342.96496377559
N      32.47800000     30.91700000     22.26900000
C      31.20000000     30.32900000     22.78000000
C      30.21000000     30.50900000     21.65000000
O      29.97800000     31.72600000     21.26900000
N      29.69400000     29.43600000     21.05400000
C      28.76200000     29.57300000     19.90600000
C      29.15100000     28.65500000     18.75500000
H      32.49800000     31.87600000     21.98800000
H      31.35500000     29.25000000     22.92500000
H      29.93800000     28.52400000     21.38400000
H      28.81600000     30.60900000     19.54100000
H      29.23500000     27.64100000     19.17300000
H      28.32300000     28.68600000     18.03100000
H      33.31260000     30.37010000     22.20290000
H      30.94270000     30.76780000     23.75530000
H      27.72920000     29.38820000     20.23650000
H      30.07520000     28.84280000     18.18880000
