18
pbedef2svp=-326.49031167568 b3lypdef2svp=-326.70451581695 b3lypvdz=-326.95503911117
N      31.51000000     18.93600000     12.85200000
C      31.39800000     19.06400000     14.28600000
C      32.49200000     18.19300000     14.99500000
C      32.35200000     16.70000000     14.63000000
C      30.79600000     19.08300000     10.56600000
C      30.49100000     19.16200000     12.04000000
O      29.36700000     19.52300000     12.44100000
H      32.38900000     18.66700000     12.45900000
H      30.40500000     18.73500000     14.62700000
H      32.40300000     18.31600000     16.08500000
H      33.13400000     16.12100000     15.14400000
H      31.36200000     16.33700000     14.94300000
H      32.46000000     16.57700000     13.54200000
H      31.64900000     18.41000000     10.39300000
H      31.53670000     20.12320000     14.54850000
H      33.44980000     18.59970000     14.63820000
H      29.91060000     18.72500000     10.02010000
H      31.04840000     20.08980000     10.20180000
