15
pbedef2svp=-287.2037295777
C      19.67700000     26.53900000     15.05100000
C      19.59300000     27.46500000     14.02100000
C      20.14200000     21.59000000     15.14900000
O      19.49900000     22.64500000     15.32100000
N      19.99300000     20.88400000     14.04900000
C      19.06500000     21.35200000     12.99900000
H      19.01600000     25.68500000     15.08000000
H      18.91100000     27.27600000     13.20500000
H      20.43090000     26.69280000     15.83710000
H      20.19630000     28.38470000     14.00550000
H      20.50600000     20.03400000     13.92400000
H      19.16200000     20.67100000     12.14100000
H      20.82360000     21.26920000     15.95060000
H      19.33720000     22.35760000     12.64600000
H      18.01610000     21.30240000     13.32660000
