10
pbedef2svp=-188.91982202675 b3lypdef2svp=-189.04206724835 b3lypvdz=-189.18657865114
C      26.01000000     16.37000000     20.28000000
N      26.97500000     15.52100000     20.94200000
C      27.60300000     14.42300000     20.65500000
N      27.47900000     13.73300000     19.53700000
H      25.04200000     16.33600000     20.80100000
H      25.87400000     16.05900000     19.23400000
H      27.21900000     15.86700000     21.84800000
H      28.09800000     12.94800000     19.51000000
H      26.44200000     17.38030000     20.33090000
H      28.34420000     14.05400000     21.37920000
