18
pbedef2svp=-326.47689810617 b3lypdef2svp=-326.6896064232 b3lypvdz=-326.9407198331
C      41.94900000     34.07600000     15.84200000
O      42.82900000     34.00000000     16.73900000
N      40.64200000     33.91600000     16.11200000
C      40.22600000     33.71600000     17.50900000
C      38.69300000     34.10600000     17.59500000
C      38.47100000     35.54600000     17.04500000
C      36.95800000     35.74600000     16.68000000
H      39.96500000     33.93300000     15.37700000
H      40.79400000     34.38800000     18.16900000
H      38.14400000     33.41300000     16.94100000
H      38.76200000     36.27900000     17.81200000
H      39.08700000     35.69300000     16.14500000
H      36.80500000     36.76400000     16.29200000
H      36.66600000     35.01400000     15.91300000
H      36.34200000     35.60000000     17.57900000
H      42.24370000     34.21960000     14.79200000
H      40.38750000     32.67470000     17.82470000
H      38.30300000     33.98190000     18.61600000
