8
pbedef2svp=-79.63970689075 b3lypdef2svp=-79.70494063623 b3lypvdz=-79.76263418468
C      25.88400000     39.13900000     14.61500000
C      24.34800000     39.29600000     14.64200000
H      26.30200000     39.41600000     15.59400000
H      26.30900000     39.79000000     13.83700000
H      23.94200000     38.86500000     13.71500000
H      23.96100000     38.73700000     15.50600000
H      26.12570000     38.08920000     14.39280000
H      23.99620000     40.33530000     14.71990000
