14
pbedef2svp=-303.23035584689
C      22.82400000     34.51400000     17.78200000
N      22.04500000     35.45500000     17.17300000
N      23.14100000     29.18700000     19.24100000
C      25.03400000     30.17000000     20.40100000
C      24.10100000     30.14900000     19.19600000
O      24.19600000     30.94800000     18.28700000
H      22.56500000     33.48000000     17.95500000
H      23.76530000     35.00910000     18.06260000
H      22.51780000     36.33590000     17.19330000
H      23.12400000     28.54900000     20.01100000
H      24.85900000     29.26400000     21.00000000
H      22.45120000     29.10210000     18.52200000
H      26.09140000     30.21680000     20.10160000
H      24.76010000     31.04090000     21.01460000
