16
pbedef2svp=-159.27918489087
C      34.50900000     26.07700000     19.36000000
C      33.20600000     26.31100000     20.12200000
C      34.73800000     30.87500000     21.47300000
C      34.87600000     30.23700000     20.06600000
H      34.78800000     25.01600000     19.43700000
H      35.30300000     26.69700000     19.80200000
H      32.92400000     27.37300000     20.07200000
H      32.40100000     25.69700000     19.69200000
H      34.38860000     26.34390000     18.29970000
H      33.38860000     26.01700000     21.16610000
H      34.44500000     31.92400000     21.31900000
H      35.08000000     29.16300000     20.18800000
H      33.92600000     30.37100000     19.52700000
H      35.70020000     30.86360000     22.00590000
H      33.90320000     30.37660000     21.98740000
H      35.68390000     30.68000000     19.46510000
