16
pbedef2svp=-362.26456153021 b3lypdef2svp=-362.49556272618 b3lypvdz=-362.78170619905
C      26.48200000     19.28000000     14.43200000
O      25.60900000     19.38800000     15.28700000
C      23.46100000     17.33100000     16.74100000
C      24.18400000     16.01600000     16.61900000
O      25.30300000     15.89400000     17.15200000
N      22.99700000     17.97800000     14.36600000
C      22.41800000     17.63800000     15.69300000
H      27.25840000     18.50640000     14.52510000
H      26.56800000     19.93400000     13.55170000
H      24.21600000     18.13000000     16.70200000
H      22.96200000     17.34600000     17.72100000
H      23.99100000     18.00600000     14.25900000
H      21.81600000     16.72700000     15.56300000
H      23.65440000     15.22930000     16.06170000
H      22.41550000     18.17940000     13.57780000
H      21.73010000     18.42720000     16.03050000
