17
pbedef2svp=-288.39944690002
C      31.68400000     26.74900000     13.34200000
C      32.06000000     25.25700000     13.36400000
N      31.11300000     20.86300000     15.86000000
C      31.28800000     22.20100000     16.41700000
C      32.77600000     22.51900000     16.57700000
O      33.23300000     23.65900000     16.38400000
H      30.62600000     26.86500000     13.61900000
H      32.31300000     27.29600000     14.06000000
H      31.84500000     27.15300000     12.33100000
H      31.94400000     24.89900000     14.39800000
H      33.11820000     25.14210000     13.08670000
H      31.40290000     24.65200000     12.72210000
H      30.62600000     20.16900000     16.39000000
H      30.85300000     22.93800000     15.72600000
H      31.47290000     20.63050000     14.95640000
H      30.74430000     22.27110000     17.37060000
H      33.42330000     21.68640000     16.88970000
