15
pbedef2svp=-378.38955733853 b3lypdef2svp=-378.62185338817 b3lypvdz=-378.9196601818
C      36.33400000     31.74200000     23.08700000
O      35.57400000     32.61800000     23.48300000
N      36.00000000     30.86000000     22.17200000
C      38.81700000     28.02000000     19.88900000
C      38.42100000     28.04800000     21.34100000
O      37.21300000     28.03600000     21.70400000
N      39.37400000     28.09000000     22.24000000
H      36.65600000     30.13900000     21.94800000
H      37.33660000     31.66700000     23.53330000
H      35.12530000     30.87040000     21.68750000
H      38.00200000     28.46900000     19.30300000
H      40.32700000     28.14100000     21.94300000
H      39.74510000     28.57150000     19.67830000
H      39.01380000     27.01710000     19.48230000
H      39.16500000     28.07190000     23.21770000
