18
pbedef2svp=-363.44456647327
N      31.11300000     20.86300000     15.86000000
C      31.28800000     22.20100000     16.41700000
C      32.12800000     19.36400000     19.75000000
O      32.54600000     19.31700000     18.55800000
C      28.37500000     17.99900000     16.88700000
O      29.32600000     18.78600000     16.69000000
C      28.10800000     17.43900000     18.27600000
H      30.62600000     20.16900000     16.39000000
H      30.85300000     22.93800000     15.72600000
H      31.47290000     20.63050000     14.95640000
H      32.35780000     22.42960000     16.53200000
H      30.74430000     22.27110000     17.37060000
H      32.22500000     20.30980000     20.30330000
H      31.76700000     18.48210000     20.29940000
H      27.85100000     16.37300000     18.19200000
H      27.64840000     17.73860000     16.10330000
H      29.02550000     17.55440000     18.87180000
H      27.25840000     17.97950000     18.71880000
