12
pbedef2svp=-193.92178544432
C      29.94200000     21.10600000     21.24000000
O      29.47000000     20.67700000     20.19000000
C      26.92600000     18.19100000     18.89200000
C      26.62100000     17.79900000     20.35200000
H      29.26390000     21.50910000     22.00660000
H      31.02640000     21.09260000     21.42400000
H      27.14900000     19.26800000     18.86300000
H      26.03200000     17.98500000     18.28500000
H      27.54500000     17.79200000     20.94900000
H      25.90200000     18.50300000     20.79700000
H      27.77560000     17.65050000     18.44920000
H      26.18900000     16.78870000     20.30110000
