15
pbedef2svp=-287.21589918461 b3lypdef2svp=-287.40201351198 b3lypvdz=-287.62494183843
C      29.27900000     23.22700000      5.64100000
O      28.47800000     23.52200000      4.72500000
C      29.90300000     24.59000000      7.66500000
C      30.86200000     25.49600000      8.38900000
N      30.31000000     25.45800000      5.38400000
C      30.28800000     24.24500000      6.19300000
H      29.89100000     23.63600000      8.21200000
H      30.49800000     25.67400000      9.41200000
H      31.85400000     25.02200000      8.43000000
H      30.93500000     26.45400000      7.85400000
H      29.44600000     25.83300000      5.04800000
H      31.28700000     23.78400000      6.19600000
H      29.36350000     22.24810000      6.13550000
H      28.87570000     24.98230000      7.69380000
H      31.16300000     25.92680000      5.15450000
