7
pbedef2svp=-95.64125007536 b3lypdef2svp=-95.7106829008 b3lypvdz=-95.78180615505
C      34.73800000     30.87500000     21.47300000
N      36.00000000     30.86000000     22.17200000
H      34.44500000     31.92400000     21.31900000
H      36.65600000     30.13900000     21.94800000
H      33.90320000     30.37660000     21.98740000
H      34.83590000     30.42250000     20.47520000
H      36.25420000     31.53120000     22.86830000
