6
pbedef2svp=-78.40736899454 b3lypdef2svp=-78.46862085769 b3lypvdz=-78.52832362378
C      24.27200000     21.54400000     17.64400000
C      25.05200000     21.28500000     18.77600000
H      24.69800000     21.42900000     16.65800000
H      26.07000000     20.94100000     18.66600000
H      23.22570000     21.86490000     17.75520000
H      24.62430000     21.43290000     19.77860000
