11
pbedef2svp=-321.90453723173 b3lypdef2svp=-322.09662014952 b3lypvdz=-322.35340820282
C      32.77600000     22.51900000     16.57700000
O      33.23300000     23.65900000     16.38400000
N      33.54800000     21.52600000     16.95000000
C      35.03100000     21.72200000     17.06900000
C      35.61500000     22.19000000     15.75900000
O      36.53200000     23.04600000     15.72400000
H      33.14600000     20.63400000     17.15600000
H      35.24600000     22.46200000     17.85400000
H      31.70620000     22.29040000     16.46200000
H      35.48830000     20.75920000     17.34080000
H      35.21920000     21.71940000     14.84690000
