8
pbedef2svp=-228.55283429748
C      30.21000000     30.50900000     21.65000000
O      29.97800000     31.72600000     21.26900000
C      31.90100000     34.91000000     22.72800000
O      32.19000000     33.69600000     22.63500000
H      30.92970000     30.37810000     22.47150000
H      29.78370000     29.62250000     21.15760000
H      30.88240000     35.23880000     22.47440000
H      32.62350000     35.68200000     23.03140000
