10
pbedef2svp=-155.63139321275 b3lypdef2svp=-155.74234848612 b3lypvdz=-155.86174857284
C      21.44700000     27.86900000     16.02600000
C      21.32500000     28.81300000     15.00500000
C      20.36900000     28.64800000     14.00100000
C      19.59300000     27.46500000     14.02100000
H      21.97400000     29.67600000     14.99200000
H      20.22700000     29.39700000     13.23600000
H      18.91100000     27.27600000     13.20500000
H      22.20570000     28.00520000     16.81080000
H      20.80830000     26.97370000     16.04730000
H      19.65960000     26.73090000     14.83750000
