17
pbedef2svp=-342.48809785138 b3lypdef2svp=-342.70516358015 b3lypvdz=-342.9694724635
N      26.33500000     27.77000000      3.25800000
C      26.85000000     29.02100000      3.89800000
C      26.10000000     29.25300000      5.20200000
O      24.86500000     29.02400000      5.33000000
C      26.73300000     30.14800000      2.90500000
N      26.84900000     29.65600000      6.21700000
C      26.23500000     30.05800000      7.49700000
H      25.55800000     27.80400000      2.63000000
H      27.91400000     28.87800000      4.13600000
H      27.50800000     29.99200000      2.14000000
H      25.73900000     30.07200000      2.44000000
H      27.84300000     29.68800000      6.11500000
H      25.16500000     30.24200000      7.32000000
H      26.77990000     26.89940000      3.46810000
H      26.84270000     31.17760000      3.27620000
H      26.69170000     31.02500000      7.75460000
H      26.31330000     29.33410000      8.32150000
