9
pbedef2svp=-208.74781278986 b3lypdef2svp=-208.87791769266 b3lypvdz=-209.04302949543
N      34.93000000     34.38400000     25.45100000
C      35.16100000     34.17400000     26.89600000
C      36.67100000     34.29600000     27.08900000
O      37.30500000     33.23300000     26.79500000
H      35.33500000     33.73400000     24.80800000
H      34.63100000     34.92600000     27.50000000
H      34.39030000     35.14080000     25.08230000
H      34.84230000     33.15910000     27.17590000
H      37.11890000     35.23360000     27.45010000
