17
pbedef2svp=-342.47340244795 b3lypdef2svp=-342.69070241922 b3lypvdz=-342.95481635238
N      30.88400000     31.48500000      6.66600000
C      31.67700000     30.27500000      6.63900000
C      31.02200000     29.28800000      5.66500000
O      29.80900000     29.39500000      5.54500000
C      31.56200000     29.68600000      8.04500000
C      32.63100000     29.44400000      9.06000000
N      31.83400000     28.41200000      5.12500000
H      29.90500000     31.41600000      6.85800000
H      32.72700000     30.46400000      6.36900000
H      30.84400000     30.34400000      8.55700000
H      31.10600000     28.69700000      7.88900000
H      33.02000000     28.42800000      8.89700000
H      32.82200000     28.45600000      5.27400000
H      31.28060000     32.38780000      6.49980000
H      33.48990000     30.13090000      9.03820000
H      32.14020000     29.44760000     10.04440000
H      31.42440000     27.69750000      4.55790000
