13
pbedef2svp=-319.28270610933
N      35.04000000     30.25200000     26.73000000
C      34.33800000     29.10300000     26.65000000
N      34.01400000     28.65700000     25.45700000
C      36.33400000     31.74200000     23.08700000
O      35.57400000     32.61800000     23.48300000
N      36.00000000     30.86000000     22.17200000
H      35.16400000     30.85000000     25.93800000
H      33.57700000     27.75900000     25.49900000
H      35.42930000     30.47320000     27.62420000
H      34.14820000     28.54850000     27.58080000
H      36.65600000     30.13900000     21.94800000
H      37.33660000     31.66700000     23.53330000
H      35.12530000     30.87040000     21.68750000
