16
pbedef2svp=-271.19675430796 b3lypdef2svp=-271.37949935574 b3lypvdz=-271.58912573186
C      28.37500000     17.99900000     16.88700000
O      29.32600000     18.78600000     16.69000000
C      26.92600000     18.19100000     18.89200000
C      26.62100000     17.79900000     20.35200000
C      26.01000000     16.37000000     20.28000000
C      28.10800000     17.43900000     18.27600000
H      27.14900000     19.26800000     18.86300000
H      26.03200000     17.98500000     18.28500000
H      27.54500000     17.79200000     20.94900000
H      25.90200000     18.50300000     20.79700000
H      25.04200000     16.33600000     20.80100000
H      25.87400000     16.05900000     19.23400000
H      27.85100000     16.37300000     18.19200000
H      27.64840000     17.73860000     16.10330000
H      26.74420000     15.72400000     20.78370000
H      29.02550000     17.55440000     18.87180000
