13
pbedef2svp=-323.10103123542
N      40.64200000     33.91600000     16.11200000
C      41.94900000     34.07600000     15.84200000
O      42.82900000     34.00000000     16.73900000
C      40.26900000     30.50800000     14.11500000
C      41.09200000     30.80800000     12.85100000
O      41.82800000     31.80800000     12.68100000
H      39.96500000     33.93300000     15.37700000
H      40.35930000     33.78010000     17.06150000
H      42.24370000     34.21960000     14.79200000
H      40.23000000     31.41000000     14.74400000
H      39.25060000     30.21550000     13.81960000
H      40.79390000     29.70730000     14.65650000
H      41.01570000     30.02790000     12.07930000
