6
pbedef2svp=-169.57136245673 b3lypdef2svp=-169.67346213459 b3lypvdz=-169.80787002108
C      28.37500000     17.99900000     16.88700000
O      29.32600000     18.78600000     16.69000000
N      27.51000000     17.68900000     15.95400000
H      26.75900000     17.07400000     16.19600000
H      28.18190000     17.59410000     17.89140000
H      27.55320000     18.02870000     15.01450000
