15
pbedef2svp=-378.32778084424 b3lypdef2svp=-378.56142254534 b3lypvdz=-378.86024659761
O      23.57900000     31.32100000      9.55400000
N      22.24100000     31.87300000     11.24100000
C      22.50400000     31.22800000     10.13600000
N      26.21400000     32.09700000      8.77100000
C      26.77200000     33.43600000      9.19700000
C      27.15100000     33.36200000     10.65000000
O      26.35000000     32.77800000     11.39500000
H      21.34100000     31.75600000     11.66200000
H      22.90230000     32.47850000     11.68370000
H      21.73270000     30.53490000      9.76920000
H      25.36900000     31.73600000      9.16600000
H      27.66100000     33.67200000      8.59400000
H      26.72330000     31.58690000      8.07790000
H      25.99930000     34.19790000      9.01690000
H      28.06890000     33.84290000     11.01910000
