13
pbedef2svp=-323.09395174911 b3lypdef2svp=-323.29663487584 b3lypvdz=-323.55284741246
C      31.90100000     34.91000000     22.72800000
O      32.19000000     33.69600000     22.63500000
C      34.73800000     30.87500000     21.47300000
C      33.58900000     30.18900000     22.18100000
O      33.58000000     29.00900000     22.49900000
N      32.47800000     30.91700000     22.26900000
H      30.88240000     35.23880000     22.47440000
H      32.62350000     35.68200000     23.03140000
H      34.44500000     31.92400000     21.31900000
H      32.49800000     31.87600000     21.98800000
H      35.70020000     30.86360000     22.00590000
H      34.83590000     30.42250000     20.47520000
H      31.62410000     30.52410000     22.61040000
