15
pbedef2svp=-287.21324738448 b3lypdef2svp=-287.40075086623 b3lypvdz=-287.62318871451
N      29.38000000     22.05700000      6.23200000
C      28.46800000     20.94000000      5.98000000
C      27.81900000     20.60900000      7.31600000
O      28.44900000     20.67400000      8.36000000
C      29.21300000     19.69700000      5.50600000
C      29.72800000     19.75500000      4.06000000
H      30.12100000     21.92300000      6.89000000
H      27.69800000     21.22000000      5.24600000
H      30.07700000     19.54500000      6.16900000
H      28.53000000     18.83800000      5.59000000
H      30.51000000     20.52800000      4.02300000
H      30.17100000     18.77400000      3.83200000
H      29.30320000     22.94690000      5.78250000
H      26.76820000     20.28460000      7.29260000
H      29.00780000     19.98130000      3.25990000
