10
pbedef2svp=-134.87138880929 b3lypdef2svp=-134.96882310371 b3lypvdz=-135.0691900525
N      37.63300000     26.54300000     11.86700000
C      37.47100000     27.39100000     10.66800000
C      36.19300000     27.05800000      9.91100000
H      36.89700000     25.91700000     12.12400000
H      38.32600000     27.22700000      9.99500000
H      35.33700000     27.21800000     10.58200000
H      36.11200000     27.73300000      9.04600000
H      38.45960000     26.57920000     12.42860000
H      37.44960000     28.45600000     10.94230000
H      36.16410000     26.01980000      9.54860000
