8
pbedef2svp=-79.63967825163 b3lypdef2svp=-79.70492475656 b3lypvdz=-79.76261918065
C      25.93100000     25.84400000     18.95900000
C      26.20300000     26.08300000     17.47100000
H      25.90600000     26.81600000     19.47400000
H      25.39600000     26.69700000     17.04400000
H      27.16300000     26.60700000     17.35300000
H      26.24600000     25.11700000     16.94600000
H      26.73110000     25.23090000     19.39940000
H      24.94360000     25.36710000     19.04650000
