14
pbedef2svp=-361.13819645682 b3lypdef2svp=-361.35807336037 b3lypvdz=-361.6434004861
N      19.81000000     29.37800000     18.57800000
C      18.44300000     29.14300000     19.08300000
C      18.45300000     28.94100000     20.59100000
O      17.86000000     27.99400000     21.12800000
C      17.86400000     27.97700000     18.34600000
C      20.83500000     28.62900000     18.90400000
O      20.82100000     27.73400000     19.74900000
H      19.96200000     30.14700000     17.95600000
H      17.83100000     30.03000000     18.86300000
H      16.84300000     27.78400000     18.70800000
H      17.83500000     28.20100000     17.27000000
H      18.48800000     27.08800000     18.51900000
H      19.06070000     29.67380000     21.14210000
H      21.75670000     28.93810000     18.38930000
