18
pbedef2svp=-235.27116012389
C      24.94200000     28.80700000     13.95200000
C      26.29000000     29.48000000     13.96000000
C      21.44700000     27.86900000     16.02600000
C      21.32500000     28.81300000     15.00500000
C      20.36900000     28.64800000     14.00100000
C      19.59300000     27.46500000     14.02100000
H      24.94200000     27.99400000     13.21100000
H      24.73300000     28.39300000     14.95000000
H      24.16700000     29.54200000     13.69000000
H      26.46700000     29.91100000     12.96300000
H      26.30460000     30.29590000     14.69760000
H      27.07870000     28.73780000     14.15240000
H      21.97400000     29.67600000     14.99200000
H      20.22700000     29.39700000     13.23600000
H      18.91100000     27.27600000     13.20500000
H      22.20570000     28.00520000     16.81080000
H      20.80830000     26.97370000     16.04730000
H      19.65960000     26.73090000     14.83750000
