8
pbedef2svp=-228.55841830209
C      27.15100000     33.36200000     10.65000000
O      26.35000000     32.77800000     11.39500000
C      25.69800000     32.87600000     15.66900000
O      26.15800000     33.73000000     14.89400000
H      26.87370000     33.41610000      9.58690000
H      28.06890000     33.84290000     11.01910000
H      25.30670000     31.97290000     15.17790000
H      25.63210000     32.93510000     16.76540000
