14
pbedef2svp=-249.14802901431 b3lypdef2svp=-249.31744487036 b3lypvdz=-249.51090661455
C      36.33400000     31.74200000     23.08700000
O      35.57400000     32.61800000     23.48300000
N      32.76300000     35.83100000     23.09000000
C      34.14500000     35.47200000     23.48100000
C      35.11400000     36.56400000     22.90700000
H      37.33660000     31.66700000     23.53330000
H      36.05440000     31.00370000     22.32100000
H      32.48200000     36.79100000     23.10200000
H      34.41100000     34.50500000     23.02800000
H      34.52600000     37.42200000     22.55000000
H      35.80200000     36.89500000     23.69900000
H      32.10620000     35.12920000     22.81420000
H      34.21370000     35.38510000     24.57540000
H      35.69410000     36.14600000     22.07110000
