11
pbedef2svp=-264.04805198253 b3lypdef2svp=-264.20964168329 b3lypvdz=-264.41595324058
N      30.99100000     42.57100000     17.99800000
N      30.13200000     40.06900000     18.64200000
C      29.60700000     41.18000000     19.46700000
C      30.07500000     42.53800000     18.98400000
O      29.58600000     43.57000000     19.48300000
H      31.36100000     41.73700000     17.58800000
H      30.85500000     39.48300000     19.00900000
H      28.51100000     41.16800000     19.37000000
H      31.27780000     43.48210000     17.70190000
H      29.77630000     39.89420000     17.72390000
H      29.83110000     40.97170000     20.52360000
