6
pbedef2svp=-169.57178821556 b3lypdef2svp=-169.67334473423 b3lypvdz=-169.80805956506
N      26.84900000     29.65600000      6.21700000
C      26.10000000     29.25300000      5.20200000
O      24.86500000     29.02400000      5.33000000
H      27.84300000     29.68800000      6.11500000
H      26.43290000     29.92850000      7.08450000
H      26.64200000     29.08530000      4.25960000
