11
pbedef2svp=-118.86748000147 b3lypdef2svp=-118.96065225623 b3lypvdz=-119.04756520677
C      32.34500000     34.18300000     18.35800000
C      32.55500000     32.78300000     18.87000000
C      33.36100000     34.49100000     17.24500000
H      32.46000000     34.90800000     19.17700000
H      33.56400000     32.69700000     19.30000000
H      31.80600000     32.56000000     19.64400000
H      32.44800000     32.06900000     18.04000000
H      34.38200000     34.41200000     17.64800000
H      33.23400000     33.77100000     16.42300000
H      33.19300000     35.51100000     16.86800000
H      31.33610000     34.26900000     17.92820000
