11
pbedef2svp=-264.04332532931 b3lypdef2svp=-264.205158622 b3lypvdz=-264.41157507953
N      33.54800000     21.52600000     16.95000000
C      35.03100000     21.72200000     17.06900000
C      35.61500000     22.19000000     15.75900000
O      36.53200000     23.04600000     15.72400000
N      35.13900000     21.62400000     14.66200000
H      33.14600000     20.63400000     17.15600000
H      35.24600000     22.46200000     17.85400000
H      34.42500000     20.93200000     14.76600000
H      32.95960000     22.28290000     16.66570000
H      35.48830000     20.75920000     17.34080000
H      35.44610000     21.84260000     13.73580000
