11
pbedef2svp=-321.89270955897 b3lypdef2svp=-322.08496675316 b3lypvdz=-322.34190463975
C      34.23900000     35.35300000     24.97900000
O      33.70700000     36.19700000     25.72800000
N      34.93000000     34.38400000     25.45100000
C      35.16100000     34.17400000     26.89600000
C      36.67100000     34.29600000     27.08900000
O      37.30500000     33.23300000     26.79500000
H      35.33500000     33.73400000     24.80800000
H      34.63100000     34.92600000     27.50000000
H      34.17030000     35.43990000     23.88460000
H      34.84230000     33.15910000     27.17590000
H      37.11890000     35.23360000     27.45010000
