16
pbedef2svp=-362.32684811485 b3lypdef2svp=-362.55597415162 b3lypvdz=-362.84088929854
N      24.79000000     32.02100000     13.61800000
C      25.14900000     31.60900000     14.98000000
C      23.50900000     32.22400000     13.29000000
O      22.54400000     31.94200000     14.03400000
C      26.77200000     33.43600000      9.19700000
C      27.15100000     33.36200000     10.65000000
O      26.35000000     32.77800000     11.39500000
H      25.50600000     32.15100000     12.93200000
H      24.28500000     31.20800000     15.53000000
H      25.54030000     32.51210000     15.47110000
H      25.97710000     30.88500000     14.97070000
H      23.29520000     32.61130000     12.28290000
H      27.66100000     33.67200000      8.59400000
H      26.36600000     32.46180000      8.88710000
H      25.99930000     34.19790000      9.01690000
H      28.06890000     33.84290000     11.01910000
