19
pbedef2svp=-347.5192330633
C      34.76200000     40.79900000     11.47000000
C      35.61400000     40.84700000     10.24000000
C      38.29000000     35.81400000     12.69800000
C      37.15600000     35.98500000     11.68800000
C      37.19200000     37.36100000     11.03300000
O      37.51900000     38.36000000     11.64500000
O      36.86100000     37.32000000      9.82200000
H      35.14400000     41.54500000     12.18200000
H      34.85000000     39.79400000     11.91000000
H      35.70300000     41.89800000      9.92700000
H      36.60900000     40.45600000     10.49800000
H      33.69580000     41.00550000     11.29520000
H      35.22930000     40.26780000      9.38760000
H      38.04100000     34.96600000     13.35300000
H      38.35600000     36.73400000     13.29800000
H      37.25300000     35.21500000     10.90800000
H      36.19400000     35.86100000     12.20700000
H      36.90400000     38.19400000      9.45200000
H      39.27740000     35.62380000     12.25200000
