11
pbedef2svp=-264.03863001643 b3lypdef2svp=-264.20163362868 b3lypvdz=-264.40729307212
N      20.80100000     27.93100000     22.57800000
C      21.55000000     26.79600000     23.13300000
C      23.04600000     27.08700000     22.91300000
O      23.38300000     27.62700000     21.87000000
N      23.88000000     26.72700000     23.85100000
H      20.84300000     28.09900000     21.59300000
H      21.34400000     26.67500000     24.20700000
H      23.53200000     26.35300000     24.71100000
H      20.25100000     28.54230000     23.14710000
H      21.32540000     25.86490000     22.59200000
H      24.86540000     26.82430000     23.71150000
