20
pbedef2svp=-327.6225753166
N      27.94200000     22.44800000     21.64800000
C      29.01500000     21.65700000     22.28800000
C      29.94200000     21.10600000     21.24000000
O      29.47000000     20.67700000     20.19000000
C      30.83200000     23.69900000     18.35800000
C      30.52000000     22.30000000     17.76400000
C      29.00600000     22.04300000     17.44200000
H      27.17100000     21.98000000     21.21600000
H      29.58400000     22.29400000     22.98200000
H      27.98100000     23.44720000     21.64430000
H      28.53100000     20.84640000     22.85260000
H      31.02640000     21.09260000     21.42400000
H      30.30700000     23.81600000     19.31800000
H      31.91600000     23.79500000     18.51900000
H      30.49400000     24.47800000     17.65800000
H      30.88200000     21.52100000     18.45100000
H      28.90200000     21.00100000     17.10700000
H      28.43100000     22.19000000     18.36800000
H      31.06370000     22.22990000     16.81040000
H      28.57490000     22.69440000     16.66750000
