17
pbedef2svp=-288.38431699391
C      32.34500000     34.18300000     18.35800000
C      32.55500000     32.78300000     18.87000000
N      32.47800000     30.91700000     22.26900000
C      31.20000000     30.32900000     22.78000000
C      30.21000000     30.50900000     21.65000000
O      29.97800000     31.72600000     21.26900000
H      32.46000000     34.90800000     19.17700000
H      33.56400000     32.69700000     19.30000000
H      31.80600000     32.56000000     19.64400000
H      32.44800000     32.06900000     18.04000000
H      31.33610000     34.26900000     17.92820000
H      33.07160000     34.40330000     17.56200000
H      32.49800000     31.87600000     21.98800000
H      31.35500000     29.25000000     22.92500000
H      33.31260000     30.37010000     22.20290000
H      30.94270000     30.76780000     23.75530000
H      29.78370000     29.62250000     21.15760000
