18
pbedef2svp=-326.49195132249 b3lypdef2svp=-326.70521717666 b3lypvdz=-326.95582316867
C      29.18300000     39.72200000     21.58100000
C      27.70000000     39.72100000     21.22800000
N      30.99100000     42.57100000     17.99800000
C      29.60700000     41.18000000     19.46700000
C      30.07500000     42.53800000     18.98400000
O      29.58600000     43.57000000     19.48300000
C      29.91900000     40.89000000     20.93800000
H      29.62800000     38.78600000     21.21200000
H      27.20800000     38.86400000     21.71100000
H      27.23900000     40.65500000     21.58100000
H      27.58300000     39.64300000     20.13700000
H      31.36100000     41.73700000     17.58800000
H      28.51100000     41.16800000     19.37000000
H      30.99700000     40.68600000     21.01500000
H      29.67500000     41.79500000     21.51400000
H      29.27350000     39.74230000     22.67710000
H      31.27780000     43.48210000     17.70190000
H      29.99720000     40.35430000     18.85380000
