13
pbedef2svp=-377.19116658888 b3lypdef2svp=-377.41337166702 b3lypvdz=-377.71145827753
N      34.00700000     23.74500000     13.25000000
C      35.61500000     22.19000000     15.75900000
O      36.53200000     23.04600000     15.72400000
N      35.13900000     21.62400000     14.66200000
C      35.59000000     21.94500000     13.30200000
C      35.23800000     23.38200000     12.92000000
O      36.06600000     24.10900000     12.33300000
H      33.39700000     23.08600000     13.69000000
H      34.42500000     20.93200000     14.76600000
H      36.68700000     21.87000000     13.28900000
H      33.68200000     24.67210000     13.06350000
H      35.18920000     21.84880000     16.71410000
H      35.21250000     21.23590000     12.55060000
