11
pbedef2svp=-264.03610785794 b3lypdef2svp=-264.19800755945 b3lypvdz=-264.40440096777
N      31.24400000     34.98600000      7.19700000
C      30.50500000     33.88400000      6.51200000
C      31.40900000     32.68000000      6.44600000
O      32.61900000     32.81200000      6.12500000
N      30.88400000     31.48500000      6.66600000
H      31.93100000     35.53000000      6.71500000
H      29.59500000     33.63500000      7.07700000
H      29.90500000     31.41600000      6.85800000
H      31.02410000     35.15720000      8.15740000
H      30.21620000     34.23900000      5.51170000
H      31.43200000     30.64880000      6.64730000
