10
pbedef2svp=-134.86572624931 b3lypdef2svp=-134.96303784816 b3lypvdz=-135.06368493841
N      41.00100000     29.87800000     11.93100000
C      41.71800000     30.02200000     10.64300000
C      41.39800000     28.78000000      9.81000000
H      40.44300000     29.06500000     12.10000000
H      42.79800000     30.00900000     10.85200000
H      41.23000000     27.91100000     10.46300000
H      40.50500000     28.95100000      9.19100000
H      41.07040000     30.58720000     12.63260000
H      41.48610000     30.97850000     10.15170000
H      42.28190000     28.61950000      9.17520000
