19
pbedef2svp=-347.43066839083
C      27.15100000     33.36200000     10.65000000
O      26.35000000     32.77800000     11.39500000
O      23.57900000     31.32100000      9.55400000
C      22.50400000     31.22800000     10.13600000
C      26.34400000     29.05000000      8.64500000
C      27.81000000     28.74800000      8.99900000
C      25.49100000     27.77100000      8.28700000
H      26.87370000     33.41610000      9.58690000
H      28.06890000     33.84290000     11.01910000
H      21.73270000     30.53490000      9.76920000
H      22.28250000     31.77120000     11.06650000
H      25.87900000     29.50700000      9.53100000
H      28.22100000     28.06200000      8.24300000
H      28.37700000     29.69100000      8.98500000
H      25.56300000     27.04000000      9.10600000
H      24.43900000     28.06000000      8.14500000
H      25.87600000     27.32100000      7.36000000
H      26.26570000     29.77390000      7.82050000
H      27.91980000     28.28560000      9.99100000
