14
pbedef2svp=-303.26210129475 b3lypdef2svp=-303.45266426322 b3lypvdz=-303.68738221394
N      41.16500000     35.53100000     31.89800000
C      41.84500000     36.55000000     32.68600000
C      41.25100000     37.94100000     32.58800000
O      41.10200000     38.52300000     31.50000000
N      40.94600000     38.47200000     33.75700000
C      40.37300000     39.81300000     33.94400000
H      40.19900000     35.35100000     32.08500000
H      41.81600000     36.24100000     33.74100000
H      42.89000000     36.60100000     32.34800000
H      41.11700000     37.92200000     34.57500000
H      41.10400000     40.57500000     33.63700000
H      39.46000000     39.91500000     33.33800000
H      41.61690000     35.00230000     31.17950000
H      40.12830000     39.94110000     35.00880000
