18
pbedef2svp=-363.49506444649
C      38.69300000     34.10600000     17.59500000
C      38.14600000     33.93200000     19.02700000
C      40.16800000     30.02600000     19.91800000
O      39.26400000     30.66200000     20.52100000
C      36.08300000     30.19400000     17.87500000
O      35.04800000     29.70200000     17.39300000
N      37.22800000     30.12600000     17.23300000
H      38.14400000     33.41300000     16.94100000
H      37.08200000     34.21100000     19.05000000
H      38.25700000     32.88200000     19.33700000
H      38.70900000     34.57900000     19.71600000
H      39.75750000     33.83520000     17.53530000
H      38.53620000     35.12310000     17.20650000
H      41.10530000     30.55160000     19.68310000
H      40.07650000     28.96140000     19.65690000
H      37.27600000     29.67300000     16.34300000
H      38.05100000     30.52700000     17.63500000
H      36.03110000     30.68130000     18.85980000
