7
pbedef2svp=-153.52377429567 b3lypdef2svp=-153.62306840803 b3lypvdz=-153.74520687067
C      40.26900000     30.50800000     14.11500000
C      41.09200000     30.80800000     12.85100000
O      41.82800000     31.80800000     12.68100000
H      40.23000000     31.41000000     14.74400000
H      39.25060000     30.21550000     13.81960000
H      40.79390000     29.70730000     14.65650000
H      41.01570000     30.02790000     12.07930000
