9
pbedef2svp=-208.79037525279 b3lypdef2svp=-208.92135121165 b3lypvdz=-209.08410177102
N      31.23300000     21.09000000     21.45900000
C      29.94200000     21.10600000     21.24000000
O      29.47000000     20.67700000     20.19000000
C      32.26200000     20.67000000     20.51400000
H      31.54300000     21.39500000     22.36000000
H      32.31500000     21.45700000     19.74700000
H      29.26390000     21.50910000     22.00660000
H      32.16500000     19.72420000     19.96070000
H      33.23390000     20.70250000     21.02820000
