6
pbedef2svp=-169.5743476617 b3lypdef2svp=-169.67629685181 b3lypvdz=-169.81071664117
N      34.00700000     23.74500000     13.25000000
C      35.23800000     23.38200000     12.92000000
O      36.06600000     24.10900000     12.33300000
H      33.39700000     23.08600000     13.69000000
H      33.68200000     24.67210000     13.06350000
H      35.49140000     22.34750000     13.19500000
