19
pbedef2svp=-343.68019651424
C      36.01200000     30.86000000     19.22100000
C      36.08300000     30.19400000     17.87500000
O      35.04800000     29.70200000     17.39300000
N      37.22800000     30.12600000     17.23300000
N      36.81100000     29.17000000     12.19200000
C      36.73100000     30.57000000     12.64500000
C      35.70800000     30.77600000     13.80600000
H      35.81700000     31.93400000     19.08500000
H      36.97000000     30.72500000     19.74400000
H      37.27600000     29.67300000     16.34300000
H      38.05100000     30.52700000     17.63500000
H      35.20410000     30.41700000     19.82190000
H      36.39600000     28.44100000     12.73600000
H      36.42300000     31.20600000     11.80200000
H      35.89000000     29.98800000     14.55100000
H      37.28330000     28.95410000     11.33740000
H      37.74640000     30.86450000     12.94880000
H      34.66770000     30.67340000     13.46370000
H      35.82630000     31.74690000     14.30930000
