13
pbedef2svp=-265.21912010665 b3lypdef2svp=-265.39055985754 b3lypvdz=-265.59592142006
N      29.42600000     38.43000000     15.44600000
C      30.22500000     38.64300000     16.66200000
C      30.45900000     40.66600000     12.13000000
O      30.25300000     39.99100000     13.13300000
N      30.16300000     40.33800000     10.88600000
H      29.59100000     38.99300000     14.63600000
H      30.16200000     37.75100000     17.30200000
H      28.71830000     37.72380000     15.42680000
H      29.82170000     39.50280000     17.21700000
H      31.28290000     38.80740000     16.40920000
H      30.35300000     40.96100000     10.12800000
H      30.98010000     41.62410000     12.27310000
H      29.74210000     39.44470000     10.72810000
