13
pbedef2svp=-323.10119059903
C      31.92300000     20.43600000      8.75500000
O      32.49300000     19.37400000      8.45600000
C      31.15500000     20.51500000     10.04800000
O      28.44900000     20.67400000      8.36000000
N      26.55900000     20.22000000      7.28800000
C      27.81900000     20.60900000      7.31600000
H      30.22700000     21.08200000      9.88300000
H      31.76900000     21.02800000     10.80200000
H      31.84810000     21.28680000      8.06180000
H      30.90260000     19.50820000     10.41220000
H      26.06040000     19.95020000      8.11180000
H      25.98970000     20.14450000      6.46940000
H      28.28810000     20.84830000      6.35030000
