5
pbedef2svp=-94.42849624699 b3lypdef2svp=-94.4925398918 b3lypvdz=-94.56803753458
N      45.47700000     29.72600000     29.76300000
C      44.17400000     29.90500000     29.55400000
H      46.01900000     29.93000000     28.94800000
H      43.46480000     29.76530000     30.38320000
H      43.82740000     30.24080000     28.56550000
