8
pbedef2svp=-79.63597545845 b3lypdef2svp=-79.7011637875 b3lypvdz=-79.7588364372
C      41.71800000     30.02200000     10.64300000
C      41.39800000     28.78000000      9.81000000
H      42.79800000     30.00900000     10.85200000
H      41.23000000     27.91100000     10.46300000
H      40.50500000     28.95100000      9.19100000
H      41.18550000     29.91510000     11.59960000
H      41.48610000     30.97850000     10.15170000
H      42.28190000     28.61950000      9.17520000
