13
pbedef2svp=-323.1054613594 b3lypdef2svp=-323.3074664873 b3lypvdz=-323.56316054421
O      32.57600000     25.80200000      5.46100000
N      30.31000000     25.45800000      5.38400000
C      31.44000000     26.07900000      5.08000000
C      26.26600000     25.41300000      2.84200000
C      26.91300000     26.63900000      3.53100000
O      27.88600000     26.46300000      4.26300000
H      29.44600000     25.83300000      5.04800000
H      30.29490000     24.62620000      5.93880000
H      31.28000000     26.99650000      4.49470000
H      25.88000000     25.74300000      1.86700000
H      27.06770000     24.67930000      2.67180000
H      25.42290000     25.02360000      3.43160000
H      26.42360000     27.59660000      3.29980000
