15
pbedef2svp=-229.30008053209
C      34.33800000     29.10300000     26.65000000
N      34.01400000     28.65700000     25.45700000
N      32.47800000     30.91700000     22.26900000
C      31.20000000     30.32900000     22.78000000
C      30.84700000     30.93100000     24.11800000
H      33.57700000     27.75900000     25.49900000
H      34.91050000     30.04000000     26.71520000
H      34.14820000     28.54850000     27.58080000
H      32.49800000     31.87600000     21.98800000
H      31.35500000     29.25000000     22.92500000
H      31.49100000     30.45600000     24.87200000
H      31.07600000     32.00600000     24.06500000
H      33.31260000     30.37010000     22.20290000
H      30.48030000     30.45990000     21.95850000
H      29.80790000     30.83320000     24.46560000
