12
pbedef2svp=-248.02224904418 b3lypdef2svp=-248.17997701921 b3lypvdz=-248.37238960591
C      23.50900000     32.22400000     13.29000000
O      22.54400000     31.94200000     14.03400000
N      24.79000000     32.02100000     13.61800000
C      25.14900000     31.60900000     14.98000000
C      26.31000000     30.59400000     14.96700000
H      25.50600000     32.15100000     12.93200000
H      24.28500000     31.20800000     15.53000000
H      27.23500000     31.16400000     14.79900000
H      26.34200000     30.12800000     15.96300000
H      23.29520000     32.61130000     12.28290000
H      25.54030000     32.51210000     15.47110000
H      26.29540000     29.77810000     14.22940000
