21
pbedef2svp=-311.57144645714
C      20.63800000     26.73500000     16.05300000
C      19.67700000     26.53900000     15.05100000
C      24.12300000     24.98100000     14.19500000
C      22.66200000     24.81900000     13.69900000
C      20.14200000     21.59000000     15.14900000
O      19.49900000     22.64500000     15.32100000
C      21.07900000     21.14900000     16.25100000
H      20.75100000     26.00800000     16.84400000
H      19.01600000     25.68500000     15.08000000
H      21.27670000     27.63030000     16.03170000
H      19.61040000     27.27310000     14.23450000
H      24.12300000     25.19500000     15.27400000
H      24.68000000     24.05100000     14.00600000
H      24.60300000     25.81200000     13.65700000
H      22.10700000     25.74900000     13.89000000
H      22.18400000     23.98900000     14.23900000
H      22.65350000     24.60490000     12.62010000
H      20.48400000     20.94600000     17.15300000
H      20.01740000     20.99970000     14.22920000
H      21.65630000     20.24960000     15.99060000
H      21.80210000     21.94330000     16.48820000
