14
pbedef2svp=-249.13963207176
C      24.18400000     16.01600000     16.61900000
O      25.30300000     15.89400000     17.15200000
C      26.62100000     17.79900000     20.35200000
C      26.01000000     16.37000000     20.28000000
N      26.97500000     15.52100000     20.94200000
H      23.65580000     16.97670000     16.70810000
H      23.65440000     15.22930000     16.06170000
H      27.54500000     17.79200000     20.94900000
H      25.90200000     18.50300000     20.79700000
H      25.04200000     16.33600000     20.80100000
H      25.87400000     16.05900000     19.23400000
H      27.21900000     15.86700000     21.84800000
H      26.83860000     18.07860000     19.31060000
H      27.45920000     14.67450000     20.72070000
