14
pbedef2svp=-361.13868224256 b3lypdef2svp=-361.35959808582 b3lypvdz=-361.64496263782
C      29.27900000     23.22700000      5.64100000
O      28.47800000     23.52200000      4.72500000
N      29.38000000     22.05700000      6.23200000
C      28.46800000     20.94000000      5.98000000
C      27.81900000     20.60900000      7.31600000
O      28.44900000     20.67400000      8.36000000
C      29.21300000     19.69700000      5.50600000
H      30.12100000     21.92300000      6.89000000
H      27.69800000     21.22000000      5.24600000
H      30.07700000     19.54500000      6.16900000
H      28.53000000     18.83800000      5.59000000
H      30.00160000     23.95610000      6.03630000
H      26.76820000     20.28460000      7.29260000
H      29.58180000     19.73850000      4.47050000
