8
pbedef2svp=-79.63925123174 b3lypdef2svp=-79.70440977456 b3lypvdz=-79.7620282987
C      29.47200000     35.18100000     23.49800000
C      30.47900000     35.36900000     22.37400000
H      29.51300000     34.11600000     23.77100000
H      30.50500000     36.43000000     22.08400000
H      29.72350000     35.74030000     24.41120000
H      28.43580000     35.37980000     23.18710000
H      30.21720000     34.75240000     21.50150000
H      31.49760000     35.04020000     22.62760000
