15
pbedef2svp=-378.32160041117
C      30.95500000     35.21100000      8.45900000
O      30.02500000     34.61800000      9.04000000
N      30.79500000     37.01500000     10.09500000
C      31.72000000     36.28900000      9.17600000
N      27.75100000     35.86700000     13.74000000
C      28.63800000     35.46100000     12.90000000
O      29.52200000     36.10300000     12.32000000
H      30.42700000     36.59700000     10.92600000
H      32.03600000     37.01200000      8.41000000
H      31.19690000     35.02270000      7.40260000
H      30.56920000     37.94970000      9.82040000
H      32.63200000     35.99860000      9.71820000
H      27.09800000     35.21600000     14.12700000
H      27.71110000     36.82960000     14.00790000
H      28.61460000     34.39800000     12.61790000
