14
pbedef2svp=-158.09331942048 b3lypdef2svp=-158.2138845231 b3lypvdz=-158.3300665538
C      39.08000000     36.94100000     27.40600000
C      39.50200000     37.34000000     26.00200000
C      38.68400000     36.64700000     24.92300000
C      39.33700000     38.85400000     25.86200000
H      38.22400000     37.57700000     27.67600000
H      39.92700000     37.16400000     28.07100000
H      40.56300000     37.08500000     25.86300000
H      39.03200000     36.97300000     23.93200000
H      38.80500000     35.55700000     25.01400000
H      37.62200000     36.90900000     25.04300000
H      39.63800000     39.16400000     24.85000000
H      38.28400000     39.12500000     26.03100000
H      39.97000000     39.36200000     26.60500000
H      38.78220000     35.90080000     27.60410000
