9
pbedef2svp=-208.74971190882 b3lypdef2svp=-208.88146097747 b3lypvdz=-209.04588010859
C      29.54200000     39.02000000     10.65300000
C      30.49400000     38.26100000      9.72900000
O      30.84900000     38.85000000      8.70600000
N      30.16300000     40.33800000     10.88600000
H      29.47700000     38.47800000     11.60800000
H      30.35300000     40.96100000     10.12800000
H      28.53770000     39.04040000     10.20460000
H      30.74240000     37.23280000     10.03100000
H      30.38720000     40.58650000     11.82830000
