15
pbedef2svp=-233.16665323712
C      36.19300000     27.05800000      9.91100000
C      36.15300000     25.62000000      9.40900000
C      33.53300000     25.09700000     12.97800000
C      34.44100000     26.09900000     13.68400000
O      34.88300000     27.09000000     13.09300000
H      35.33700000     27.21800000     10.58200000
H      36.11200000     27.73300000      9.04600000
H      36.87800000     25.50100000      8.59000000
H      36.41500000     24.94000000     10.23300000
H      37.11650000     27.29860000     10.45800000
H      35.14570000     25.37450000      9.04150000
H      33.61300000     25.28200000     11.89700000
H      33.89050000     24.07720000     13.18320000
H      32.47480000     25.21190000     13.25530000
H      34.68380000     25.86950000     14.73200000
