13
pbedef2svp=-323.09057841139
C      24.24100000     20.43600000     12.85700000
O      23.26400000     20.95100000     13.32900000
C      21.46000000     18.73700000     16.16300000
O      20.49700000     18.50600000     16.90000000
N      21.84600000     19.95400000     15.90500000
C      22.41800000     17.63800000     15.69300000
H      25.21610000     20.92100000     13.01190000
H      24.24020000     19.45520000     12.35890000
H      22.72300000     20.07900000     15.44100000
H      21.81600000     16.72700000     15.56300000
H      21.32120000     20.77160000     16.14170000
H      22.84630000     17.88950000     14.71150000
H      23.17780000     17.41440000     16.45640000
