7
pbedef2svp=-95.64025848592 b3lypdef2svp=-95.70963882089 b3lypvdz=-95.78076897786
N      41.31700000     34.39300000     13.43200000
C      42.34500000     34.26900000     14.43100000
H      41.07700000     33.58800000     12.89000000
H      42.96700000     33.40700000     14.14900000
H      42.95000000     35.18700000     14.38800000
H      40.83200000     35.24970000     13.25670000
H      42.05030000     34.12540000     15.48100000
