13
pbedef2svp=-323.07649111164
C      27.33100000     29.31700000     20.36400000
O      27.10100000     28.34600000     21.09700000
N      23.88000000     26.72700000     23.85100000
C      23.04600000     27.08700000     22.91300000
O      23.38300000     27.62700000     21.87000000
C      25.34900000     26.87200000     23.64300000
H      28.36380000     29.50180000     20.03350000
H      26.59060000     30.07400000     20.06620000
H      23.53200000     26.35300000     24.71100000
H      25.55800000     27.73800000     22.99800000
H      21.97730000     26.87910000     23.07020000
H      25.63300000     25.94500000     23.12330000
H      25.87450000     26.98350000     24.60290000
