16
pbedef2svp=-362.34040033358
N      20.71700000     22.96400000     12.26000000
C      19.06500000     21.35200000     12.99900000
C      19.44200000     22.74500000     12.51000000
O      18.57100000     23.61000000     12.28900000
C      25.59400000     21.10900000     13.07200000
C      24.24100000     20.43600000     12.85700000
O      23.26400000     20.95100000     13.32900000
H      21.38500000     22.24600000     12.45600000
H      19.16200000     20.67100000     12.14100000
H      21.02970000     23.83380000     11.87830000
H      19.75590000     21.00360000     13.78080000
H      18.01610000     21.30240000     13.32660000
H      25.51600000     21.80500000     13.92000000
H      26.33400000     20.32790000     13.30050000
H      25.94320000     21.66420000     12.18890000
H      24.24020000     19.45520000     12.35890000
