9
pbedef2svp=-208.81105574017 b3lypdef2svp=-208.94187930385 b3lypvdz=-209.10532453462
N      25.56200000     32.73300000      1.80600000
C      26.88200000     31.54600000      3.40900000
C      26.78600000     32.56200000      2.27000000
O      27.78300000     33.16000000      1.87000000
H      25.39300000     33.39100000      1.07200000
H      24.80400000     32.20400000      2.18800000
H      26.08500000     31.75000000      4.13900000
H      27.86200000     31.64800000      3.89800000
H      26.77230000     30.51640000      3.03780000
