9
pbedef2svp=-208.74733426912 b3lypdef2svp=-208.87799756454 b3lypvdz=-209.04286398714
N      28.52500000     34.44700000     18.18900000
C      29.80100000     34.14500000     18.82900000
C      30.05200000     35.04200000     20.00400000
O      30.10500000     36.30500000     19.78800000
H      28.44200000     35.28300000     17.64600000
H      29.80100000     33.10000000     19.17200000
H      27.73110000     33.84520000     18.27590000
H      30.59150000     34.25680000     18.07230000
H      30.11320000     34.60920000     21.01340000
