15
pbedef2svp=-378.37564199864 b3lypdef2svp=-378.60638724397 b3lypvdz=-378.90452492747
C      38.36500000     29.33500000     24.15900000
O      37.68400000     29.39000000     25.22100000
N      38.41900000     30.37300000     23.34100000
C      37.73800000     31.63700000     23.71200000
C      40.16800000     30.02600000     19.91800000
O      39.26400000     30.66200000     20.52100000
N      40.05900000     28.75800000     19.60700000
H      38.91700000     30.30600000     22.47600000
H      37.65300000     31.71100000     24.80600000
H      38.86900000     28.41650000     23.82390000
H      36.73540000     31.71200000     23.26570000
H      38.30060000     32.50360000     23.33460000
H      41.10530000     30.55160000     19.68310000
H      39.21520000     28.25660000     19.79860000
H      40.71650000     28.18600000     19.11660000
