16
pbedef2svp=-271.1610674151 b3lypdef2svp=-271.34899965452 b3lypvdz=-271.5595479541
C      20.63800000     26.73500000     16.05300000
C      19.67700000     26.53900000     15.05100000
C      18.45300000     28.94100000     20.59100000
O      17.86000000     27.99400000     21.12800000
C      17.86400000     27.97700000     18.34600000
C      18.44300000     29.14300000     19.08300000
H      20.75100000     26.00800000     16.84400000
H      19.01600000     25.68500000     15.08000000
H      21.27670000     27.63030000     16.03170000
H      19.61040000     27.27310000     14.23450000
H      16.84300000     27.78400000     18.70800000
H      17.83500000     28.20100000     17.27000000
H      18.48800000     27.08800000     18.51900000
H      17.83100000     30.03000000     18.86300000
H      19.06070000     29.67380000     21.14210000
H      19.46170000     29.31810000     18.70670000
