13
pbedef2svp=-377.18867511483 b3lypdef2svp=-377.41246834845 b3lypvdz=-377.71028818016
C      31.90100000     34.91000000     22.72800000
O      32.19000000     33.69600000     22.63500000
N      32.76300000     35.83100000     23.09000000
C      34.14500000     35.47200000     23.48100000
C      34.23900000     35.35300000     24.97900000
O      33.70700000     36.19700000     25.72800000
N      34.93000000     34.38400000     25.45100000
H      32.48200000     36.79100000     23.10200000
H      34.41100000     34.50500000     23.02800000
H      35.33500000     33.73400000     24.80800000
H      30.88240000     35.23880000     22.47440000
H      34.82450000     36.23770000     23.07850000
H      35.08630000     34.24190000     26.42840000
