15
pbedef2svp=-287.21095618329 b3lypdef2svp=-287.39725418185 b3lypvdz=-287.62013493419
C      28.37500000     17.99900000     16.88700000
O      29.32600000     18.78600000     16.69000000
C      26.92600000     18.19100000     18.89200000
C      26.62100000     17.79900000     20.35200000
N      29.34000000     17.59400000     19.07600000
C      28.10800000     17.43900000     18.27600000
H      27.14900000     19.26800000     18.86300000
H      26.03200000     17.98500000     18.28500000
H      27.54500000     17.79200000     20.94900000
H      25.90200000     18.50300000     20.79700000
H      29.44000000     18.40200000     19.65700000
H      27.85100000     16.37300000     18.19200000
H      27.64840000     17.73860000     16.10330000
H      26.18900000     16.78870000     20.30110000
H      30.07790000     16.91940000     19.05720000
