23
pbedef2svp=-312.79156774053
C      34.50900000     26.07700000     19.36000000
C      34.34300000     26.44500000     17.89800000
C      36.08300000     30.19400000     17.87500000
O      35.04800000     29.70200000     17.39300000
C      33.28400000     30.50400000     14.55200000
C      35.70800000     30.77600000     13.80600000
C      34.22800000     30.63000000     13.31900000
H      34.78800000     25.01600000     19.43700000
H      35.30300000     26.69700000     19.80200000
H      34.05700000     27.50400000     17.81100000
H      33.56400000     25.81600000     17.44200000
H      33.57070000     26.24550000     19.90870000
H      35.30370000     26.27560000     17.38970000
H      36.03110000     30.68130000     18.85980000
H      37.04120000     30.13710000     17.33770000
H      32.24400000     30.40100000     14.20900000
H      33.56500000     29.61800000     15.14000000
H      33.37700000     31.40400000     15.17800000
H      35.89000000     29.98800000     14.55100000
H      33.94700000     31.51600000     12.73100000
H      34.13500000     29.73000000     12.69300000
H      36.42890000     30.63080000     12.98790000
H      35.82630000     31.74690000     14.30930000
