12
pbedef2svp=-248.03097322149 b3lypdef2svp=-248.18862613932 b3lypvdz=-248.38149504264
C      32.26200000     20.67000000     20.51400000
C      32.12800000     19.36400000     19.75000000
O      32.54600000     19.31700000     18.55800000
C      33.63800000     20.71600000     21.24200000
N      31.69700000     18.31100000     20.40600000
H      32.31500000     21.45700000     19.74700000
H      33.51900000     20.30000000     22.25300000
H      34.35900000     20.10600000     20.67800000
H      31.43900000     18.43200000     21.36400000
H      31.48610000     20.98670000     21.22650000
H      34.02710000     21.74170000     21.32330000
H      31.60950000     17.39610000     20.01200000
