17
pbedef2svp=-309.15621368645
C      23.21200000     32.76200000     11.89100000
C      23.50900000     32.22400000     13.29000000
O      22.54400000     31.94200000     14.03400000
C      21.44700000     27.86900000     16.02600000
C      21.32500000     28.81300000     15.00500000
C      20.36900000     28.64800000     14.00100000
C      19.59300000     27.46500000     14.02100000
H      24.14700000     32.76300000     11.31200000
H      22.48450000     32.09600000     11.40400000
H      22.85770000     33.80140000     11.95590000
H      24.56230000     32.05710000     13.55970000
H      21.97400000     29.67600000     14.99200000
H      20.22700000     29.39700000     13.23600000
H      18.91100000     27.27600000     13.20500000
H      22.20570000     28.00520000     16.81080000
H      20.80830000     26.97370000     16.04730000
H      19.65960000     26.73090000     14.83750000
