18
pbedef2svp=-326.48569241447 b3lypdef2svp=-326.70015468014 b3lypvdz=-326.95050450859
C      20.08100000     24.77300000      8.03300000
C      20.82200000     25.91400000      7.33200000
O      21.32300000     26.83000000      8.00800000
C      18.59900000     24.73600000      7.72700000
N      20.92400000     25.86200000      6.00600000
C      21.65600000     26.84700000      5.24000000
C      21.63100000     26.64200000      3.73100000
H      20.52200000     23.82600000      7.68800000
H      18.12100000     25.48200000      8.37800000
H      18.48300000     25.03900000      6.67600000
H      20.47700000     25.11200000      5.51900000
H      22.70900000     26.81500000      5.55600000
H      22.06200000     27.53200000      3.24900000
H      22.24200000     25.76100000      3.48700000
H      20.23580000     24.84820000      9.11950000
H      18.03730000     23.79840000      7.85160000
H      21.27490000     27.85040000      5.48060000
H      20.61700000     26.48570000      3.33430000
