19
pbedef2svp=-347.4329437335
C      20.83500000     28.62900000     18.90400000
O      20.82100000     27.73400000     19.74900000
C      23.04600000     27.08700000     22.91300000
O      23.38300000     27.62700000     21.87000000
C      25.64600000     31.67000000     22.42100000
C      23.18100000     31.30900000     21.82400000
C      24.63900000     31.42600000     21.28600000
H      21.75670000     28.93810000     18.38930000
H      19.97480000     29.25760000     18.63040000
H      21.97730000     26.87910000     23.07020000
H      23.74860000     26.78370000     23.70320000
H      26.63000000     31.89000000     21.98200000
H      25.30900000     32.53200000     23.01600000
H      22.94200000     32.19400000     22.43200000
H      22.48200000     31.24600000     20.97700000
H      23.09000000     30.40400000     22.44300000
H      24.67100000     32.30400000     20.62400000
H      25.73940000     30.79640000     23.08290000
H      24.91290000     30.55510000     20.67240000
