15
pbedef2svp=-324.2992450278
C      22.22900000     18.24400000     13.32500000
O      20.96300000     18.25300000     13.39500000
N      22.99700000     17.97800000     14.36600000
C      27.29900000     17.05500000     13.53300000
O      25.92500000     16.61100000     13.91300000
C      28.23600000     15.86400000     13.55800000
H      23.99100000     18.00600000     14.25900000
H      22.73440000     18.49050000     12.37960000
H      22.60770000     17.74940000     15.25830000
H      27.28300000     17.48700000     12.52200000
H      25.65000000     15.90600000     13.33900000
H      27.93200000     15.14100000     12.78700000
H      29.26400000     16.20200000     13.35900000
H      28.19300000     15.38400000     14.54700000
H      27.49310000     17.85740000     14.25990000
