10
pbedef2svp=-155.63466834789 b3lypdef2svp=-155.7465086952 b3lypvdz=-155.86590065306
C      23.81200000     34.03100000      5.67700000
C      24.62000000     34.77800000      4.85300000
C      25.28800000     34.60900000      7.49900000
C      24.14700000     33.96600000      7.03800000
H      22.94800000     33.51100000      5.29000000
H      24.31900000     34.89900000      3.82300000
H      23.51900000     33.41800000      7.72500000
H      25.55390000     35.25990000      5.17790000
H      25.58500000     34.52800000      8.55500000
H      25.94760000     35.18220000      6.83090000
