14
pbedef2svp=-361.14049593695 b3lypdef2svp=-361.3616859383 b3lypvdz=-361.64727855694
C      41.84500000     36.55000000     32.68600000
C      41.25100000     37.94100000     32.58800000
O      41.10200000     38.52300000     31.50000000
N      40.94600000     38.47200000     33.75700000
C      40.37300000     39.81300000     33.94400000
C      40.03100000     39.99200000     35.43200000
O      40.86200000     39.57500000     36.25100000
H      41.81600000     36.24100000     33.74100000
H      42.89000000     36.60100000     32.34800000
H      41.11700000     37.92200000     34.57500000
H      41.10400000     40.57500000     33.63700000
H      39.46000000     39.91500000     33.33800000
H      41.33150000     35.78050000     32.09090000
H      39.06230000     40.46220000     35.65700000
