9
pbedef2svp=-208.79445495651 b3lypdef2svp=-208.92453976327 b3lypvdz=-209.08786677965
N      26.46500000     25.68900000     21.83300000
C      25.74300000     25.58600000     22.92200000
O      25.32500000     24.48900000     23.37800000
C      26.82600000     24.52100000     21.01200000
H      26.78200000     26.59400000     21.54900000
H      25.96700000     23.83400000     21.00400000
H      25.45900000     26.51300000     23.44170000
H      27.67130000     23.98540000     21.46870000
H      26.98190000     24.85930000     19.97700000
