13
pbedef2svp=-269.04785062955
C      34.50900000     26.07700000     19.36000000
C      34.34300000     26.44500000     17.89800000
O      35.25200000     22.32200000     21.95800000
O      33.54400000     23.08600000     20.88300000
C      34.17400000     22.12900000     21.35400000
H      34.78800000     25.01600000     19.43700000
H      35.30300000     26.69700000     19.80200000
H      34.05700000     27.50400000     17.81100000
H      33.56400000     25.81600000     17.44200000
H      33.57070000     26.24550000     19.90870000
H      35.30370000     26.27560000     17.38970000
H      35.44700000     23.25200000     21.96900000
H      33.78490000     21.10330000     21.27270000
