6
pbedef2svp=-169.57168049503 b3lypdef2svp=-169.67317068682 b3lypvdz=-169.80785358186
C      22.22900000     18.24400000     13.32500000
O      20.96300000     18.25300000     13.39500000
N      22.99700000     17.97800000     14.36600000
H      23.99100000     18.00600000     14.25900000
H      22.73440000     18.49050000     12.37960000
H      22.60770000     17.74940000     15.25830000
