12
pbedef2svp=-193.9212362892
C      24.10100000     30.14900000     19.19600000
O      24.19600000     30.94800000     18.28700000
C      25.14900000     31.60900000     14.98000000
C      26.31000000     30.59400000     14.96700000
H      24.77440000     30.16420000     20.06570000
H      23.32440000     29.37080000     19.23240000
H      24.28500000     31.20800000     15.53000000
H      27.23500000     31.16400000     14.79900000
H      26.34200000     30.12800000     15.96300000
H      24.87990000     31.91780000     13.95910000
H      25.54030000     32.51210000     15.47110000
H      26.29540000     29.77810000     14.22940000
