6
pbedef2svp=-169.57380827177 b3lypdef2svp=-169.6761159796 b3lypvdz=-169.81019472218
C      30.49400000     38.26100000      9.72900000
O      30.84900000     38.85000000      8.70600000
N      30.79500000     37.01500000     10.09500000
H      30.42700000     36.59700000     10.92600000
H      29.80890000     38.80720000     10.39400000
H      31.41480000     36.52850000      9.47920000
