16
pbedef2svp=-362.31435806004
N      41.18900000     32.08500000     19.03100000
C      40.44900000     32.27800000     17.94500000
O      39.93600000     31.33600000     17.31500000
C      41.82200000     33.18800000     19.81300000
O      42.77000000     27.65500000     15.90600000
C      42.44500000     29.84800000     15.18200000
C      43.09000000     28.82800000     16.09500000
H      41.10900000     33.65500000     20.50800000
H      42.25100000     33.95800000     19.15500000
H      41.37360000     31.17950000     19.41310000
H      40.28750000     33.31930000     17.62930000
H      42.60380000     32.62870000     20.34770000
H      43.02100000     29.92200000     14.24800000
H      42.42600000     30.82900000     15.68000000
H      41.41650000     29.52930000     14.95700000
H      43.76290000     29.18110000     16.89030000
