15
pbedef2svp=-378.374243684
C      36.08300000     30.19400000     17.87500000
O      35.04800000     29.70200000     17.39300000
N      37.22800000     30.12600000     17.23300000
N      34.73400000     25.82200000     14.94900000
C      35.59600000     26.71500000     15.73600000
C      34.44100000     26.09900000     13.68400000
O      34.88300000     27.09000000     13.09300000
H      37.27600000     29.67300000     16.34300000
H      38.05100000     30.52700000     17.63500000
H      36.03110000     30.68130000     18.85980000
H      34.36300000     24.99500000     15.37200000
H      35.14500000     27.71800000     15.76300000
H      36.59410000     26.79530000     15.28070000
H      35.68160000     26.34670000     16.76900000
H      33.78620000     25.37640000     13.17490000
