20
pbedef2svp=-290.50533130861
C      21.02300000     31.22300000      4.78400000
N      22.09900000     29.16300000      5.60500000
C      21.90700000     30.56300000      5.88100000
C      26.13600000     35.34600000      6.64000000
C      23.81200000     34.03100000      5.67700000
C      25.28800000     34.60900000      7.49900000
C      24.14700000     33.96600000      7.03800000
H      20.13500000     30.60100000      4.60000000
H      20.70800000     32.22400000      5.11400000
H      23.03200000     28.85400000      5.42200000
H      22.89500000     31.02900000      5.75500000
H      21.61400000     31.30690000      3.86010000
H      21.37400000     28.47460000      5.58190000
H      21.58370000     30.84890000      6.89280000
H      27.00600000     35.85800000      7.02300000
H      22.94800000     33.51100000      5.29000000
H      23.51900000     33.41800000      7.72500000
H      25.88200000     35.38180000      5.57030000
H      24.45850000     34.62870000      5.01770000
H      25.58500000     34.52800000      8.55500000
