7
pbedef2svp=-153.52513988833 b3lypdef2svp=-153.62508909437 b3lypvdz=-153.7470736539
O      33.54400000     23.08600000     20.88300000
C      33.63800000     20.71600000     21.24200000
C      34.17400000     22.12900000     21.35400000
H      33.51900000     20.30000000     22.25300000
H      34.35900000     20.10600000     20.67800000
H      32.66610000     20.68350000     20.72780000
H      35.12210000     22.29880000     21.88520000
