15
pbedef2svp=-378.33014648611
N      26.58500000     20.06300000     13.37800000
C      26.48200000     19.28000000     14.43200000
O      25.60900000     19.38800000     15.28700000
C      26.54100000     18.73200000      9.25100000
O      26.33300000     18.53600000     10.45700000
N      26.55900000     20.22000000      7.28800000
C      25.82900000     19.82500000      8.49400000
H      27.36400000     19.94300000     12.76300000
H      25.91220000     20.77310000     13.17030000
H      27.25840000     18.50640000     14.52510000
H      25.66900000     20.69300000      9.15000000
H      27.22310000     18.08900000      8.67540000
H      27.51430000     20.51490000      7.30920000
H      25.98970000     20.14450000      6.46940000
H      24.86060000     19.47400000      8.10810000
