15
pbedef2svp=-287.21195904811 b3lypdef2svp=-287.39811462787 b3lypvdz=-287.62077253463
N      28.26000000     33.94300000     11.09600000
C      28.60500000     33.96500000     12.50300000
C      28.63800000     35.46100000     12.90000000
O      29.52200000     36.10300000     12.32000000
C      29.96300000     33.31700000     12.81400000
C      29.95700000     31.83800000     12.35200000
H      28.87600000     34.37900000     10.44000000
H      27.82500000     33.46000000     13.09200000
H      30.75600000     33.85900000     12.27900000
H      30.93100000     31.37900000     12.57700000
H      29.16300000     31.29200000     12.88200000
H      29.77200000     31.79300000     11.26900000
H      27.42560000     33.50580000     10.76040000
H      27.88010000     35.80790000     13.61780000
H      30.14340000     33.37300000     13.89770000
