19
pbedef2svp=-347.44728085341
C      29.41200000     30.79600000     24.59800000
C      29.27100000     31.31400000     26.01600000
C      27.33100000     29.31700000     20.36400000
O      27.10100000     28.34600000     21.09700000
C      27.55300000     27.35600000     24.69500000
C      28.26200000     27.57600000     26.02000000
O      29.18900000     26.84000000     26.33500000
H      28.75300000     31.37500000     23.93500000
H      29.12000000     29.73600000     24.57000000
H      29.85100000     30.66900000     26.69200000
H      29.66200000     32.34100000     26.06300000
H      30.45110000     30.89380000     24.25040000
H      28.21910000     31.31630000     26.33770000
H      28.36380000     29.50180000     20.03350000
H      26.59060000     30.07400000     20.06620000
H      28.02600000     26.52000000     24.15900000
H      27.62300000     28.26900000     24.08500000
H      26.49540000     27.11990000     24.88400000
H      27.86100000     28.41020000     26.61440000
