7
pbedef2svp=-153.52463006793 b3lypdef2svp=-153.62431886111 b3lypvdz=-153.74623882833
C      31.28800000     22.20100000     16.41700000
C      32.77600000     22.51900000     16.57700000
O      33.23300000     23.65900000     16.38400000
H      30.85300000     22.93800000     15.72600000
H      31.15610000     21.19280000     15.99730000
H      30.74430000     22.27110000     17.37060000
H      33.42330000     21.68640000     16.88970000
