10
pbedef2svp=-283.87344142079 b3lypdef2svp=-284.04518009794 b3lypvdz=-284.26984192257
N      40.94600000     38.47200000     33.75700000
C      40.37300000     39.81300000     33.94400000
C      40.03100000     39.99200000     35.43200000
O      38.93300000     40.52500000     35.68700000
O      40.86200000     39.57500000     36.25100000
H      41.11700000     37.92200000     34.57500000
H      41.10400000     40.57500000     33.63700000
H      39.46000000     39.91500000     33.33800000
H      38.81400000     40.57100000     36.62800000
H      41.17710000     38.06960000     32.87120000
