11
pbedef2svp=-209.92213606394
C      24.10100000     30.14900000     19.19600000
O      24.19600000     30.94800000     18.28700000
N      24.79000000     32.02100000     13.61800000
C      25.14900000     31.60900000     14.98000000
H      24.77440000     30.16420000     20.06570000
H      23.32440000     29.37080000     19.23240000
H      25.50600000     32.15100000     12.93200000
H      24.28500000     31.20800000     15.53000000
H      23.83250000     32.17270000     13.37280000
H      25.54030000     32.51210000     15.47110000
H      25.97710000     30.88500000     14.97070000
