17
pbedef2svp=-342.48722488274 b3lypdef2svp=-342.70514191487 b3lypvdz=-342.96925278486
C      39.07600000     34.93100000     29.03100000
O      38.29700000     34.94600000     29.99600000
N      40.29400000     34.41200000     29.04500000
C      40.87300000     33.80200000     30.25300000
C      41.65100000     32.52900000     29.92300000
N      37.19700000     35.39700000     27.51300000
C      38.66800000     35.50200000     27.68000000
H      40.83900000     34.43500000     28.20700000
H      40.05800000     33.53600000     30.94300000
H      41.23700000     32.10900000     28.99400000
H      42.70300000     32.80600000     29.76300000
H      36.61300000     36.17900000     27.72900000
H      39.13700000     34.87600000     26.90700000
H      41.51610000     34.54240000     30.75120000
H      41.61990000     31.74470000     30.69360000
H      36.78980000     34.54470000     27.18480000
H      38.96580000     36.54220000     27.48190000
