12
pbedef2svp=-339.15161598867 b3lypdef2svp=-339.35644940788 b3lypvdz=-339.62473782107
N      34.93000000     34.38400000     25.45100000
C      34.23900000     35.35300000     24.97900000
O      33.70700000     36.19700000     25.72800000
C      36.33400000     31.74200000     23.08700000
O      35.57400000     32.61800000     23.48300000
N      36.00000000     30.86000000     22.17200000
H      35.33500000     33.73400000     24.80800000
H      35.08630000     34.24190000     26.42840000
H      34.17030000     35.43990000     23.88460000
H      36.65600000     30.13900000     21.94800000
H      37.33660000     31.66700000     23.53330000
H      35.12530000     30.87040000     21.68750000
