7
pbedef2svp=-95.63953576593 b3lypdef2svp=-95.70905168014 b3lypvdz=-95.78038009853
N      40.94600000     38.47200000     33.75700000
C      40.37300000     39.81300000     33.94400000
H      41.11700000     37.92200000     34.57500000
H      41.10400000     40.57500000     33.63700000
H      39.46000000     39.91500000     33.33800000
H      41.17710000     38.06960000     32.87120000
H      40.12830000     39.94110000     35.00880000
