16
pbedef2svp=-159.27246332305 b3lypdef2svp=-159.40177065596 b3lypvdz=-159.51706824709
C      24.46900000     19.33200000      7.95200000
C      25.82900000     19.82500000      8.49400000
C      26.08400000     21.88800000     11.83300000
C      27.42600000     22.61600000     11.90200000
H      24.49800000     18.25500000      7.73000000
H      23.65900000     19.53700000      8.66800000
H      25.66900000     20.69300000      9.15000000
H      24.34380000     19.92280000      7.03260000
H      26.37750000     20.12180000      7.58790000
H      26.34830000     19.02780000      9.04610000
H      26.14900000     21.16800000     11.00400000
H      25.31800000     22.64300000     11.60300000
H      28.23400000     21.90500000     12.13000000
H      25.73480000     21.33280000     12.71610000
H      27.63490000     23.13470000     10.95470000
H      27.39290000     23.41200000     12.66050000
