8
pbedef2svp=-79.6361546302 b3lypdef2svp=-79.70123076838 b3lypvdz=-79.75896611607
C      21.02300000     31.22300000      4.78400000
C      21.90700000     30.56300000      5.88100000
H      20.13500000     30.60100000      4.60000000
H      20.70800000     32.22400000      5.11400000
H      22.89500000     31.02900000      5.75500000
H      21.61400000     31.30690000      3.86010000
H      22.05370000     29.49340000      5.67010000
H      21.58370000     30.84890000      6.89280000
