13
pbedef2svp=-174.09980380694 b3lypdef2svp=-174.22461698089 b3lypvdz=-174.35412926014
N      26.84900000     29.65600000      6.21700000
C      26.23500000     30.05800000      7.49700000
C      26.34400000     29.05000000      8.64500000
C      27.81000000     28.74800000      8.99900000
H      27.84300000     29.68800000      6.11500000
H      25.16500000     30.24200000      7.32000000
H      25.87900000     29.50700000      9.53100000
H      28.22100000     28.06200000      8.24300000
H      28.37700000     29.69100000      8.98500000
H      26.28340000     29.35170000      5.45050000
H      26.69170000     31.02500000      7.75460000
H      25.74960000     28.15870000      8.39550000
H      27.91980000     28.28560000      9.99100000
