9
pbedef2svp=-208.81184716168 b3lypdef2svp=-208.9421974922 b3lypvdz=-209.10587002128
C      16.50900000     23.52900000      7.11600000
O      15.44600000     22.98000000      7.43300000
N      16.53900000     24.29300000      6.00900000
C      17.81900000     23.43400000      7.90000000
H      15.71200000     24.40900000      5.45900000
H      17.38800000     24.74500000      5.73600000
H      18.41700000     22.59300000      7.51900000
H      17.60000000     23.27500000      8.96600000
H      18.38070000     24.37160000      7.77540000
