11
pbedef2svp=-118.86709568057 b3lypdef2svp=-118.96020604527 b3lypvdz=-119.04693316241
C      26.82600000     24.52100000     21.01200000
C      27.04300000     24.99200000     19.57100000
C      25.93100000     25.84400000     18.95900000
H      25.96700000     23.83400000     21.00400000
H      27.96900000     25.58500000     19.54900000
H      27.16400000     24.09800000     18.94200000
H      25.90600000     26.81600000     19.47400000
H      26.55630000     25.39350000     21.62530000
H      27.67130000     23.98540000     21.46870000
H      26.12640000     26.01570000     17.89020000
H      24.94360000     25.36710000     19.04650000
