6
pbedef2svp=-78.40724273326 b3lypdef2svp=-78.46853011674 b3lypvdz=-78.52823959629
C      21.32500000     28.81300000     15.00500000
C      20.36900000     28.64800000     14.00100000
H      21.97400000     29.67600000     14.99200000
H      20.22700000     29.39700000     13.23600000
H      21.42110000     28.06910000     15.80960000
H      19.76570000     27.72830000     14.01650000
