10
pbedef2svp=-192.74883638987 b3lypdef2svp=-192.87627531042 b3lypvdz=-193.02724488061
C      29.47200000     35.18100000     23.49800000
C      30.47900000     35.36900000     22.37400000
C      31.90100000     34.91000000     22.72800000
O      32.19000000     33.69600000     22.63500000
H      29.51300000     34.11600000     23.77100000
H      30.50500000     36.43000000     22.08400000
H      29.72350000     35.74030000     24.41120000
H      28.43580000     35.37980000     23.18710000
H      30.21720000     34.75240000     21.50150000
H      32.62350000     35.68200000     23.03140000
