14
pbedef2svp=-361.12816766853 b3lypdef2svp=-361.34788048858 b3lypvdz=-361.63373139305
C      30.95500000     35.21100000      8.45900000
O      30.02500000     34.61800000      9.04000000
N      31.24400000     34.98600000      7.19700000
C      30.50500000     33.88400000      6.51200000
C      31.40900000     32.68000000      6.44600000
O      32.61900000     32.81200000      6.12500000
C      30.09100000     34.39300000      5.07800000
H      31.93100000     35.53000000      6.71500000
H      29.59500000     33.63500000      7.07700000
H      29.47000000     33.64700000      4.56000000
H      31.51460000     35.99950000      8.98350000
H      30.97270000     31.68690000      6.62880000
H      31.09520000     34.48230000      4.63800000
H      29.60530000     35.37950000      5.10770000
