16
pbedef2svp=-362.33456276139 b3lypdef2svp=-362.56370612579 b3lypvdz=-362.84885946504
C      29.54200000     39.02000000     10.65300000
C      30.49400000     38.26100000      9.72900000
O      30.84900000     38.85000000      8.70600000
N      30.79500000     37.01500000     10.09500000
C      28.60500000     33.96500000     12.50300000
C      28.63800000     35.46100000     12.90000000
O      29.52200000     36.10300000     12.32000000
H      29.47700000     38.47800000     11.60800000
H      30.42700000     36.59700000     10.92600000
H      30.00500000     40.00260000     10.82670000
H      28.53770000     39.04040000     10.20460000
H      31.41480000     36.52850000      9.47920000
H      27.82500000     33.46000000     13.09200000
H      28.34310000     33.94830000     11.43480000
H      29.57720000     33.50110000     12.72570000
H      27.88010000     35.80790000     13.61780000
