10
pbedef2svp=-283.85085765538
C      29.27900000     23.22700000      5.64100000
O      28.47800000     23.52200000      4.72500000
N      26.33500000     27.77000000      3.25800000
C      26.91300000     26.63900000      3.53100000
O      27.88600000     26.46300000      4.26300000
H      30.00160000     23.95610000      6.03630000
H      29.36350000     22.24810000      6.13550000
H      25.55800000     27.80400000      2.63000000
H      26.67910000     28.60590000      3.68560000
H      26.45330000     25.76780000      3.04140000
