15
pbedef2svp=-233.16119306081
C      31.39800000     19.06400000     14.28600000
C      32.49200000     18.19300000     14.99500000
C      32.26200000     20.67000000     20.51400000
C      32.12800000     19.36400000     19.75000000
O      32.54600000     19.31700000     18.55800000
H      30.40500000     18.73500000     14.62700000
H      32.40300000     18.31600000     16.08500000
H      31.48330000     18.96650000     13.19370000
H      31.53670000     20.12320000     14.54850000
H      33.44980000     18.59970000     14.63820000
H      32.39220000     17.12890000     14.73480000
H      32.31500000     21.45700000     19.74700000
H      31.48610000     20.98670000     21.22650000
H      33.23390000     20.70250000     21.02820000
H      31.76700000     18.48210000     20.29940000
