12
pbedef2svp=-248.01726353036 b3lypdef2svp=-248.17598136202 b3lypvdz=-248.36824541457
C      27.81900000     20.60900000      7.31600000
O      28.44900000     20.67400000      8.36000000
N      26.55900000     20.22000000      7.28800000
C      25.82900000     19.82500000      8.49400000
C      24.46900000     19.33200000      7.95200000
H      25.66900000     20.69300000      9.15000000
H      24.49800000     18.25500000      7.73000000
H      23.65900000     19.53700000      8.66800000
H      28.28810000     20.84830000      6.35030000
H      25.98970000     20.14450000      6.46940000
H      26.34830000     19.02780000      9.04610000
H      24.34380000     19.92280000      7.03260000
