12
pbedef2svp=-285.04977583722
C      41.89600000     30.08000000     30.45600000
N      43.31100000     29.73500000     30.56300000
C      40.55900000     28.58500000     25.67500000
O      40.71600000     29.80900000     25.45600000
O      40.54900000     28.09000000     26.84000000
H      41.30800000     29.34500000     31.02600000
H      41.60100000     30.04400000     29.39700000
H      43.64900000     29.35700000     31.42500000
H      41.68370000     31.08530000     30.84880000
H      43.95570000     29.86200000     29.80920000
H      40.67600000     28.78100000     27.47900000
H      40.40020000     27.93760000     24.80000000
