13
pbedef2svp=-323.09777435693 b3lypdef2svp=-323.29937367266 b3lypvdz=-323.55591926081
C      27.15100000     33.36200000     10.65000000
O      26.35000000     32.77800000     11.39500000
N      24.79000000     32.02100000     13.61800000
C      23.21200000     32.76200000     11.89100000
C      23.50900000     32.22400000     13.29000000
O      22.54400000     31.94200000     14.03400000
H      26.87370000     33.41610000      9.58690000
H      28.06890000     33.84290000     11.01910000
H      25.50600000     32.15100000     12.93200000
H      24.14700000     32.76300000     11.31200000
H      25.03460000     31.74030000     14.54610000
H      22.48450000     32.09600000     11.40400000
H      22.85770000     33.80140000     11.95590000
