11
pbedef2svp=-264.04091530101 b3lypdef2svp=-264.20289625845 b3lypvdz=-264.40914399139
C      29.27900000     23.22700000      5.64100000
O      28.47800000     23.52200000      4.72500000
N      29.38000000     22.05700000      6.23200000
N      30.31000000     25.45800000      5.38400000
C      30.28800000     24.24500000      6.19300000
H      30.12100000     21.92300000      6.89000000
H      29.44600000     25.83300000      5.04800000
H      31.28700000     23.78400000      6.19600000
H      28.75700000     21.29400000      6.05990000
H      31.16300000     25.92680000      5.15450000
H      30.01650000     24.48820000      7.23090000
