7
pbedef2svp=-153.52239842718 b3lypdef2svp=-153.62156201201 b3lypvdz=-153.74362684926
C      38.81700000     28.02000000     19.88900000
C      38.42100000     28.04800000     21.34100000
O      37.21300000     28.03600000     21.70400000
H      38.00200000     28.46900000     19.30300000
H      39.74510000     28.57150000     19.67830000
H      39.01380000     27.01710000     19.48230000
H      39.22070000     28.08320000     22.09540000
