15
pbedef2svp=-345.08605721384 b3lypdef2svp=-345.30396205283 b3lypvdz=-345.57700919028
C      35.03100000     21.72200000     17.06900000
C      35.61500000     22.19000000     15.75900000
O      36.53200000     23.04600000     15.72400000
C      35.66700000     20.38300000     17.44700000
C      37.12800000     20.29300000     17.87200000
C      37.56100000     18.85100000     18.08200000
O      37.75800000     18.02400000     17.19500000
H      35.24600000     22.46200000     17.85400000
H      35.07400000     19.98200000     18.28200000
H      35.55700000     19.72700000     16.57100000
H      37.75600000     20.74400000     17.09000000
H      37.26100000     20.84600000     18.81300000
H      33.94390000     21.57830000     16.98180000
H      35.21920000     21.71940000     14.84690000
H      37.61960000     18.63070000     19.15810000
