15
pbedef2svp=-378.3652997957
C      36.33400000     31.74200000     23.08700000
O      35.57400000     32.61800000     23.48300000
N      36.00000000     30.86000000     22.17200000
C      40.16800000     30.02600000     19.91800000
O      39.26400000     30.66200000     20.52100000
C      41.03500000     27.90900000     18.87900000
N      40.05900000     28.75800000     19.60700000
H      36.65600000     30.13900000     21.94800000
H      37.33660000     31.66700000     23.53330000
H      35.12530000     30.87040000     21.68750000
H      41.73000000     27.40700000     19.56800000
H      41.60700000     28.49000000     18.14100000
H      41.10530000     30.55160000     19.68310000
H      40.35580000     27.19270000     18.39360000
H      39.21520000     28.25660000     19.79860000
