9
pbedef2svp=-154.71942766616 b3lypdef2svp=-154.82529045071 b3lypvdz=-154.94587729045
O      33.77800000     18.73900000     14.51600000
C      32.35200000     16.70000000     14.63000000
C      32.49200000     18.19300000     14.99500000
H      34.49400000     18.25400000     14.90900000
H      33.13400000     16.12100000     15.14400000
H      31.36200000     16.33700000     14.94300000
H      32.46000000     16.57700000     13.54200000
H      32.40300000     18.31600000     16.08500000
H      31.72450000     18.80410000     14.49760000
