6
pbedef2svp=-169.57262321395 b3lypdef2svp=-169.67451518259 b3lypvdz=-169.80896176203
C      29.27900000     23.22700000      5.64100000
O      28.47800000     23.52200000      4.72500000
N      29.38000000     22.05700000      6.23200000
H      30.12100000     21.92300000      6.89000000
H      30.00160000     23.95610000      6.03630000
H      28.75700000     21.29400000      6.05990000
