23
pbedef2svp=-312.78964407901
C      31.28800000     22.20100000     16.41700000
C      30.52000000     22.30000000     17.76400000
C      29.94200000     21.10600000     21.24000000
O      29.47000000     20.67700000     20.19000000
C      26.92600000     18.19100000     18.89200000
C      26.62100000     17.79900000     20.35200000
C      28.10800000     17.43900000     18.27600000
H      30.85300000     22.93800000     15.72600000
H      30.88200000     21.52100000     18.45100000
H      31.15610000     21.19280000     15.99730000
H      32.35780000     22.42960000     16.53200000
H      29.45860000     22.11980000     17.53830000
H      30.74120000     23.29180000     18.18510000
H      29.26390000     21.50910000     22.00660000
H      31.02640000     21.09260000     21.42400000
H      27.14900000     19.26800000     18.86300000
H      26.03200000     17.98500000     18.28500000
H      27.54500000     17.79200000     20.94900000
H      25.90200000     18.50300000     20.79700000
H      27.85100000     16.37300000     18.19200000
H      26.18900000     16.78870000     20.30110000
H      29.02550000     17.55440000     18.87180000
H      28.30110000     17.84390000     17.27160000
