9
pbedef2svp=-208.8021660701 b3lypdef2svp=-208.93299251228 b3lypvdz=-209.09624069859
N      27.75100000     35.86700000     13.74000000
C      28.60500000     33.96500000     12.50300000
C      28.63800000     35.46100000     12.90000000
O      29.52200000     36.10300000     12.32000000
H      27.09800000     35.21600000     14.12700000
H      27.82500000     33.46000000     13.09200000
H      27.71110000     36.82960000     14.00790000
H      28.34310000     33.94830000     11.43480000
H      29.57720000     33.50110000     12.72570000
