17
pbedef2svp=-342.50093931719 b3lypdef2svp=-342.71815104334 b3lypvdz=-342.98250151767
N      31.11300000     20.86300000     15.86000000
C      31.28800000     22.20100000     16.41700000
C      32.77600000     22.51900000     16.57700000
O      33.23300000     23.65900000     16.38400000
C      30.52000000     22.30000000     17.76400000
C      29.00600000     22.04300000     17.44200000
N      33.54800000     21.52600000     16.95000000
H      30.62600000     20.16900000     16.39000000
H      30.85300000     22.93800000     15.72600000
H      30.88200000     21.52100000     18.45100000
H      28.90200000     21.00100000     17.10700000
H      28.43100000     22.19000000     18.36800000
H      33.14600000     20.63400000     17.15600000
H      31.47290000     20.63050000     14.95640000
H      30.74120000     23.29180000     18.18510000
H      28.57490000     22.69440000     16.66750000
H      34.53630000     21.65660000     17.02930000
