14
pbedef2svp=-249.21303986253
C      38.69300000     34.10600000     17.59500000
C      38.14600000     33.93200000     19.02700000
C      40.16800000     30.02600000     19.91800000
O      39.26400000     30.66200000     20.52100000
N      40.05900000     28.75800000     19.60700000
H      38.14400000     33.41300000     16.94100000
H      37.08200000     34.21100000     19.05000000
H      38.25700000     32.88200000     19.33700000
H      38.70900000     34.57900000     19.71600000
H      39.75750000     33.83520000     17.53530000
H      38.53620000     35.12310000     17.20650000
H      41.10530000     30.55160000     19.68310000
H      39.21520000     28.25660000     19.79860000
H      40.71650000     28.18600000     19.11660000
