15
pbedef2svp=-287.25949984372 b3lypdef2svp=-287.44607941792 b3lypvdz=-287.66763349224
C      36.73100000     30.57000000     12.64500000
C      38.14800000     30.98100000     13.06900000
O      38.54400000     32.15000000     12.85600000
N      38.88300000     30.11000000     13.71300000
C      40.26900000     30.50800000     14.11500000
C      40.99600000     29.39900000     14.86500000
H      36.42300000     31.20600000     11.80200000
H      38.52700000     29.20100000     13.93100000
H      40.23000000     31.41000000     14.74400000
H      40.46600000     29.18400000     15.80400000
H      41.02200000     28.49200000     14.24300000
H      36.79070000     29.52500000     12.30690000
H      36.01010000     30.71520000     13.46310000
H      40.85770000     30.72260000     13.21090000
H      42.02450000     29.71770000     15.09000000
