23
pbedef2svp=-312.79093403846
C      31.56200000     29.68600000      8.04500000
C      32.63100000     29.44400000      9.06000000
C      34.75800000     25.28000000      8.90000000
C      34.79300000     24.26400000      7.76700000
C      33.53300000     25.09700000     12.97800000
C      34.44100000     26.09900000     13.68400000
O      34.88300000     27.09000000     13.09300000
H      30.84400000     30.34400000      8.55700000
H      31.10600000     28.69700000      7.88900000
H      33.02000000     28.42800000      8.89700000
H      31.64470000     30.10980000      7.03330000
H      33.48990000     30.13090000      9.03820000
H      32.14020000     29.44760000     10.04440000
H      34.16900000     24.86400000      9.73100000
H      34.27900000     26.20100000      8.53600000
H      35.65600000     23.59600000      7.90900000
H      33.86500000     23.67300000      7.78500000
H      35.76530000     25.52550000      9.26750000
H      34.88200000     24.76430000      6.79140000
H      33.61300000     25.28200000     11.89700000
H      33.89050000     24.07720000     13.18320000
H      32.47480000     25.21190000     13.25530000
H      34.68380000     25.86950000     14.73200000
