22
pbedef2svp=-237.68516432538
C      20.63800000     26.73500000     16.05300000
C      19.67700000     26.53900000     15.05100000
C      22.08500000     22.25400000     16.58100000
C      21.07900000     21.14900000     16.25100000
C      22.65000000     24.51600000     12.17200000
C      22.66200000     24.81900000     13.69900000
H      20.75100000     26.00800000     16.84400000
H      19.01600000     25.68500000     15.08000000
H      21.27670000     27.63030000     16.03170000
H      19.61040000     27.27310000     14.23450000
H      22.74300000     22.39600000     15.71100000
H      21.52900000     23.18300000     16.77600000
H      20.48400000     20.94600000     17.15300000
H      22.71140000     22.03330000     17.45790000
H      21.65630000     20.24960000     15.99060000
H      20.39740000     21.46980000     15.44940000
H      23.21600000     23.58600000     12.01300000
H      22.10700000     25.74900000     13.89000000
H      22.18400000     23.98900000     14.23900000
H      21.61880000     24.33800000     11.83300000
H      23.16720000     25.32030000     11.62840000
H      23.69790000     24.93390000     14.05070000
