12
pbedef2svp=-248.02627060587 b3lypdef2svp=-248.18528926519 b3lypvdz=-248.37787851956
C      34.14500000     35.47200000     23.48100000
C      34.23900000     35.35300000     24.97900000
O      33.70700000     36.19700000     25.72800000
C      35.11400000     36.56400000     22.90700000
N      34.93000000     34.38400000     25.45100000
H      34.41100000     34.50500000     23.02800000
H      34.52600000     37.42200000     22.55000000
H      35.80200000     36.89500000     23.69900000
H      35.33500000     33.73400000     24.80800000
H      33.11810000     35.73870000     23.19050000
H      35.69410000     36.14600000     22.07110000
H      35.08630000     34.24190000     26.42840000
