11
pbedef2svp=-321.90093662978 b3lypdef2svp=-322.09455853808 b3lypvdz=-322.35063505733
C      26.88200000     31.42800000      7.86200000
O      27.90600000     31.71100000      7.26400000
N      26.21400000     32.09700000      8.77100000
C      26.77200000     33.43600000      9.19700000
C      27.15100000     33.36200000     10.65000000
O      26.35000000     32.77800000     11.39500000
H      25.36900000     31.73600000      9.16600000
H      27.66100000     33.67200000      8.59400000
H      26.42530000     30.46100000      7.60440000
H      25.99930000     34.19790000      9.01690000
H      28.06890000     33.84290000     11.01910000
