9
pbedef2svp=-208.75278425559 b3lypdef2svp=-208.8833940334 b3lypvdz=-209.04868358494
N      37.49900000     25.74300000     14.57100000
C      38.79400000     25.76100000     13.88000000
C      38.72800000     26.59100000     12.61100000
O      39.70400000     27.34600000     12.27700000
H      36.99800000     24.88000000     14.63700000
H      39.53500000     26.22600000     14.54600000
H      37.10120000     26.56530000     14.97800000
H      39.14480000     24.74290000     13.65570000
H      37.81870000     26.55110000     11.99320000
