7
pbedef2svp=-95.64026838632 b3lypdef2svp=-95.70973621692 b3lypvdz=-95.78095949635
N      41.16500000     35.53100000     31.89800000
C      41.84500000     36.55000000     32.68600000
H      40.19900000     35.35100000     32.08500000
H      41.81600000     36.24100000     33.74100000
H      42.89000000     36.60100000     32.34800000
H      41.61690000     35.00230000     31.17950000
H      41.41390000     37.55950000     32.61490000
