11
pbedef2svp=-209.92262487069
C      24.24100000     20.43600000     12.85700000
O      23.26400000     20.95100000     13.32900000
N      21.84600000     19.95400000     15.90500000
C      21.07900000     21.14900000     16.25100000
H      25.21610000     20.92100000     13.01190000
H      24.24020000     19.45520000     12.35890000
H      22.72300000     20.07900000     15.44100000
H      20.48400000     20.94600000     17.15300000
H      21.54970000     19.01970000     16.10310000
H      20.39740000     21.46980000     15.44940000
H      21.80210000     21.94330000     16.48820000
