16
pbedef2svp=-362.31130596586
O      29.80900000     29.39500000      5.54500000
N      31.83400000     28.41200000      5.12500000
C      31.22000000     27.34100000      4.27500000
C      31.02200000     29.28800000      5.66500000
C      26.23500000     30.05800000      7.49700000
C      26.88200000     31.42800000      7.86200000
O      27.90600000     31.71100000      7.26400000
H      32.82200000     28.45600000      5.27400000
H      30.13900000     27.52500000      4.18300000
H      31.38000000     26.42350000      4.86030000
H      31.66200000     27.28350000      3.26940000
H      31.49180000     29.99600000      6.36360000
H      25.16500000     30.24200000      7.32000000
H      26.69280000     29.75830000      6.54270000
H      26.31330000     29.33410000      8.32150000
H      26.32170000     31.98910000      8.62440000
