6
pbedef2svp=-169.57141610705 b3lypdef2svp=-169.67350582091 b3lypvdz=-169.80795542371
N      38.88300000     30.11000000     13.71300000
C      38.14800000     30.98100000     13.06900000
O      38.54400000     32.15000000     12.85600000
H      38.52700000     29.20100000     13.93100000
H      39.80890000     30.37590000     13.98150000
H      37.13260000     30.68650000     12.76520000
