15
pbedef2svp=-287.25005703567 b3lypdef2svp=-287.65794581627 b3lypvdz=-287.65794581627
C      27.99400000     23.78100000     21.64300000
O      28.90400000     24.44400000     22.09800000
N      27.94200000     22.44800000     21.64800000
C      29.01500000     21.65700000     22.28800000
C      28.34800000     20.54000000     23.06600000
C      29.24700000     19.45600000     23.70500000
H      27.17100000     21.98000000     21.21600000
H      29.58400000     22.29400000     22.98200000
H      27.77300000     21.00700000     23.87900000
H      27.66000000     20.02800000     22.37700000
H      29.26900000     18.57400000     23.04800000
H      30.26600000     19.85500000     23.81800000
H      27.14870000     24.31660000     21.18630000
H      29.69310000     21.25390000     21.52140000
H      28.86580000     19.15900000     24.69320000
