18
pbedef2svp=-326.48857025115 b3lypdef2svp=-326.70227607649 b3lypvdz=-326.95326648883
C      24.12300000     24.98100000     14.19500000
N      20.29100000     24.87500000      9.50700000
C      21.18400000     24.26300000     11.69000000
C      21.11000000     24.11100000     10.17300000
O      21.84100000     23.19800000      9.68600000
C      22.65000000     24.51600000     12.17200000
C      22.66200000     24.81900000     13.69900000
H      24.12300000     25.19500000     15.27400000
H      24.68000000     24.05100000     14.00600000
H      24.60300000     25.81200000     13.65700000
H      19.77500000     25.56800000     10.01100000
H      20.53700000     25.08800000     12.02200000
H      23.21600000     23.58600000     12.01300000
H      22.10700000     25.74900000     13.89000000
H      22.18400000     23.98900000     14.23900000
H      20.15030000     24.80670000      8.51930000
H      20.84000000     23.30620000     12.10980000
H      23.16720000     25.32030000     11.62840000
