17
pbedef2svp=-197.2734801265
C      19.76200000     25.07700000     22.45500000
C      19.63400000     23.88500000     21.53100000
C      22.08500000     22.25400000     16.58100000
C      22.94500000     21.95100000     17.78500000
C      22.43700000     22.15700000     19.06500000
H      19.49400000     24.79200000     23.48300000
H      19.10600000     25.89300000     22.11700000
H      20.63700000     23.57900000     21.19900000
H      19.16000000     23.05700000     22.07800000
H      20.81510000     25.39150000     22.40950000
H      19.02350000     24.12830000     20.64890000
H      22.74300000     22.39600000     15.71100000
H      21.52900000     23.18300000     16.77600000
H      21.42600000     22.51800000     19.18200000
H      21.36190000     21.45970000     16.34380000
H      23.99130000     21.63010000     17.67380000
H      23.04570000     21.95860000     19.95950000
