9
pbedef2svp=-208.75567967987 b3lypdef2svp=-208.88721274325 b3lypvdz=-209.05209442231
C      18.45300000     28.94100000     20.59100000
O      17.86000000     27.99400000     21.12800000
N      19.81000000     29.37800000     18.57800000
C      18.44300000     29.14300000     19.08300000
H      19.96200000     30.14700000     17.95600000
H      17.83100000     30.03000000     18.86300000
H      19.06070000     29.67380000     21.14210000
H      20.59200000     28.80650000     18.82670000
H      18.01730000     28.28560000     18.54110000
