9
pbedef2svp=-208.78995942354 b3lypdef2svp=-208.92093097888 b3lypvdz=-209.08397408807
O      28.44900000     20.67400000      8.36000000
C      25.71400000     20.10800000      6.07300000
N      26.55900000     20.22000000      7.28800000
C      27.81900000     20.60900000      7.31600000
H      25.90100000     19.16700000      5.53500000
H      25.87000000     20.95700000      5.39100000
H      24.70950000     20.12650000      6.52090000
H      26.06040000     19.95020000      8.11180000
H      28.28810000     20.84830000      6.35030000
