18
pbedef2svp=-363.50312822748
C      26.54100000     18.73200000      9.25100000
O      26.33300000     18.53600000     10.45700000
C      27.29900000     17.05500000     13.53300000
C      28.23600000     15.86400000     13.55800000
N      24.24000000     19.23300000     12.24600000
C      24.24100000     20.43600000     12.85700000
O      23.26400000     20.95100000     13.32900000
H      26.02170000     19.52920000      8.69890000
H      27.22310000     18.08900000      8.67540000
H      27.28300000     17.48700000     12.52200000
H      27.93200000     15.14100000     12.78700000
H      29.26400000     16.20200000     13.35900000
H      28.19300000     15.38400000     14.54700000
H      27.49310000     17.85740000     14.25990000
H      26.28680000     16.72790000     13.81300000
H      25.09100000     18.79700000     11.95400000
H      23.35340000     18.79510000     12.09710000
H      25.21610000     20.92100000     13.01190000
