18
pbedef2svp=-363.5016806772
C      32.35200000     16.70000000     14.63000000
C      32.49200000     18.19300000     14.99500000
C      32.12800000     19.36400000     19.75000000
O      32.54600000     19.31700000     18.55800000
N      33.54800000     21.52600000     16.95000000
C      32.77600000     22.51900000     16.57700000
O      33.23300000     23.65900000     16.38400000
H      33.13400000     16.12100000     15.14400000
H      31.36200000     16.33700000     14.94300000
H      32.46000000     16.57700000     13.54200000
H      32.40300000     18.31600000     16.08500000
H      31.72450000     18.80410000     14.49760000
H      33.44980000     18.59970000     14.63820000
H      32.22500000     20.30980000     20.30330000
H      31.76700000     18.48210000     20.29940000
H      33.14600000     20.63400000     17.15600000
H      34.53630000     21.65660000     17.02930000
H      31.70620000     22.29040000     16.46200000
