16
pbedef2svp=-271.1518896777 b3lypdef2svp=-271.34029988353 b3lypvdz=-271.5510504831
C      30.95500000     35.21100000      8.45900000
O      30.02500000     34.61800000      9.04000000
C      26.77200000     33.43600000      9.19700000
C      25.69500000     34.49800000      8.94600000
C      25.28800000     34.60900000      7.49900000
C      24.14700000     33.96600000      7.03800000
H      31.51460000     35.99950000      8.98350000
H      31.19690000     35.02270000      7.40260000
H      27.66100000     33.67200000      8.59400000
H      24.80600000     34.23900000      9.53900000
H      26.08400000     35.47300000      9.27400000
H      23.51900000     33.41800000      7.72500000
H      26.36600000     32.46180000      8.88710000
H      27.04930000     33.38190000     10.26010000
H      25.94760000     35.18220000      6.83090000
H      23.88440000     34.01700000      5.97100000
