13
pbedef2svp=-231.97757264362 b3lypdef2svp=-232.13303960852 b3lypvdz=-232.31331638675
C      31.28800000     22.20100000     16.41700000
C      32.77600000     22.51900000     16.57700000
O      33.23300000     23.65900000     16.38400000
C      30.52000000     22.30000000     17.76400000
C      29.00600000     22.04300000     17.44200000
H      30.85300000     22.93800000     15.72600000
H      30.88200000     21.52100000     18.45100000
H      28.90200000     21.00100000     17.10700000
H      28.43100000     22.19000000     18.36800000
H      31.15610000     21.19280000     15.99730000
H      33.42330000     21.68640000     16.88970000
H      30.74120000     23.29180000     18.18510000
H      28.57490000     22.69440000     16.66750000
