16
pbedef2svp=-159.27991455917 b3lypdef2svp=-159.40973202419 b3lypvdz=-159.52495823451
C      29.90300000     24.59000000      7.66500000
C      30.86200000     25.49600000      8.38900000
C      31.15200000     24.42100000     12.47700000
C      32.06000000     25.25700000     13.36400000
H      29.89100000     23.63600000      8.21200000
H      30.49800000     25.67400000      9.41200000
H      31.85400000     25.02200000      8.43000000
H      30.93500000     26.45400000      7.85400000
H      30.17450000     24.34680000      6.62710000
H      28.87570000     24.98230000      7.69380000
H      30.10600000     24.56300000     12.78500000
H      31.27200000     24.73600000     11.43000000
H      31.42200000     23.35900000     12.57400000
H      31.94400000     24.89900000     14.39800000
H      33.11820000     25.14210000     13.08670000
H      31.79120000     26.32350000     13.34830000
