7
pbedef2svp=-153.52060724817 b3lypdef2svp=-153.62054408653 b3lypvdz=-153.74221067002
O      32.57600000     25.80200000      5.46100000
C      31.22000000     27.34100000      4.27500000
C      31.44000000     26.07900000      5.08000000
H      30.13900000     27.52500000      4.18300000
H      31.67060000     28.12700000      4.89880000
H      31.66200000     27.28350000      3.26940000
H      30.50170000     25.56340000      5.33240000
