8
pbedef2svp=-79.63950114043 b3lypdef2svp=-79.7047882547 b3lypvdz=-79.76243089416
C      24.57700000     25.19000000     19.07900000
C      25.93100000     25.84400000     18.95900000
H      23.81400000     25.84000000     18.62600000
H      24.59000000     24.22100000     18.55800000
H      24.33900000     25.03100000     20.14100000
H      25.90600000     26.81600000     19.47400000
H      26.73110000     25.23090000     19.39940000
H      26.12640000     26.01570000     17.89020000
