13
pbedef2svp=-377.19445017706 b3lypdef2svp=-377.41757096474 b3lypvdz=-377.71517728168
N      31.51000000     18.93600000     12.85200000
C      29.25800000     17.31800000      9.98400000
O      29.93000000     16.47700000     10.60600000
N      29.59900000     18.59900000      9.82800000
C      30.79600000     19.08300000     10.56600000
C      30.49100000     19.16200000     12.04000000
O      29.36700000     19.52300000     12.44100000
H      32.38900000     18.66700000     12.45900000
H      29.07000000     19.20900000      9.23800000
H      31.64900000     18.41000000     10.39300000
H      31.43240000     19.02460000     13.84500000
H      28.38130000     16.96630000      9.42040000
H      31.04840000     20.08980000     10.20180000
