15
pbedef2svp=-287.26268127428 b3lypdef2svp=-287.44874950381 b3lypvdz=-287.67074926274
C      35.59600000     26.71500000     15.73600000
C      36.97500000     26.82600000     15.10700000
O      37.57900000     27.92600000     15.15900000
C      35.71500000     26.20300000     17.17200000
C      34.34300000     26.44500000     17.89800000
N      37.49900000     25.74300000     14.57100000
H      35.14500000     27.71800000     15.76300000
H      35.94800000     25.12800000     17.16500000
H      36.51400000     26.74800000     17.69600000
H      34.05700000     27.50400000     17.81100000
H      33.56400000     25.81600000     17.44200000
H      36.99800000     24.88000000     14.63700000
H      34.95080000     26.04660000     15.14690000
H      34.46340000     26.17810000     18.95830000
H      38.38120000     25.75530000     14.10030000
