12
pbedef2svp=-248.03188180313 b3lypdef2svp=-248.18975782147 b3lypvdz=-248.382590934
C      39.06300000     28.06300000     23.69500000
C      38.36500000     29.33500000     24.15900000
O      37.68400000     29.39000000     25.22100000
C      40.34000000     27.69200000     24.46800000
N      38.41900000     30.37300000     23.34100000
H      38.35200000     27.23900000     23.85600000
H      40.25700000     26.64900000     24.80900000
H      41.20300000     27.79000000     23.79400000
H      38.91700000     30.30600000     22.47600000
H      39.29290000     28.08300000     22.61950000
H      40.49880000     28.33940000     25.34300000
H      37.95980000     31.22540000     23.59120000
