10
pbedef2svp=-134.86993098527 b3lypdef2svp=-134.96696257935 b3lypvdz=-135.06735940355
C      21.02300000     31.22300000      4.78400000
N      22.09900000     29.16300000      5.60500000
C      21.90700000     30.56300000      5.88100000
H      20.13500000     30.60100000      4.60000000
H      20.70800000     32.22400000      5.11400000
H      23.03200000     28.85400000      5.42200000
H      22.89500000     31.02900000      5.75500000
H      21.61400000     31.30690000      3.86010000
H      21.37400000     28.47460000      5.58190000
H      21.58370000     30.84890000      6.89280000
