7
pbedef2svp=-95.63543991579 b3lypdef2svp=-95.70471193838 b3lypvdz=-95.77612961064
C      38.81700000     28.02000000     19.88900000
N      40.05900000     28.75800000     19.60700000
H      38.00200000     28.46900000     19.30300000
H      38.52760000     28.04050000     20.95010000
H      39.01380000     27.01710000     19.48230000
H      40.14220000     29.72580000     19.84440000
H      40.71650000     28.18600000     19.11660000
