12
pbedef2svp=-248.0383470605 b3lypdef2svp=-248.19660353657 b3lypvdz=-248.38926126045
C      19.06500000     21.35200000     12.99900000
C      19.44200000     22.74500000     12.51000000
O      18.57100000     23.61000000     12.28900000
C      17.58600000     21.28200000     13.46100000
N      20.71700000     22.96400000     12.26000000
H      19.16200000     20.67100000     12.14100000
H      17.45300000     20.36800000     14.05800000
H      17.37700000     22.16200000     14.08700000
H      21.38500000     22.24600000     12.45600000
H      19.75590000     21.00360000     13.78080000
H      16.85880000     21.26470000     12.63590000
H      21.02970000     23.83380000     11.87830000
