16
pbedef2svp=-362.26544754924
C      26.48200000     19.28000000     14.43200000
O      25.60900000     19.38800000     15.28700000
C      22.94500000     21.95100000     17.78500000
C      24.27200000     21.54400000     17.64400000
C      22.22900000     18.24400000     13.32500000
O      20.96300000     18.25300000     13.39500000
N      22.99700000     17.97800000     14.36600000
H      27.25840000     18.50640000     14.52510000
H      26.56800000     19.93400000     13.55170000
H      24.69800000     21.42900000     16.65800000
H      22.31860000     22.17170000     16.90810000
H      22.54370000     22.11370000     18.79620000
H      24.88530000     21.34030000     18.53410000
H      23.99100000     18.00600000     14.25900000
H      22.73440000     18.49050000     12.37960000
H      22.60770000     17.74940000     15.25830000
