13
pbedef2svp=-265.21779308451
N      21.67400000     30.03400000      8.19100000
C      21.41900000     30.25300000      9.62000000
N      20.92400000     25.86200000      6.00600000
C      20.82200000     25.91400000      7.33200000
O      21.32300000     26.83000000      8.00800000
H      22.02400000     29.14200000      7.90400000
H      20.41000000     30.65000000      9.80700000
H      21.51690000     30.72820000      7.48850000
H      22.19030000     30.94610000      9.98680000
H      21.57530000     29.29940000     10.14560000
H      20.47700000     25.11200000      5.51900000
H      21.43000000     26.54290000      5.47650000
H      20.28940000     25.09390000      7.83580000
