16
pbedef2svp=-362.33243463547
N      30.12400000     34.53300000     21.19100000
C      29.80100000     34.14500000     18.82900000
C      30.05200000     35.04200000     20.00400000
O      30.10500000     36.30500000     19.78800000
C      30.22500000     38.64300000     16.66200000
C      29.66400000     39.83900000     17.43400000
O      28.85000000     40.56500000     16.85900000
H      29.93800000     33.55900000     21.31800000
H      29.80100000     33.10000000     19.17200000
H      30.36200000     35.09350000     21.98420000
H      28.83900000     34.37270000     18.34650000
H      30.59150000     34.25680000     18.07230000
H      30.16200000     37.75100000     17.30200000
H      29.62730000     38.48370000     15.75240000
H      31.28290000     38.80740000     16.40920000
H      30.05530000     40.03130000     18.44390000
