21
pbedef2svp=-311.57318329177
C      26.92600000     18.19100000     18.89200000
C      28.10800000     17.43900000     18.27600000
C      24.27200000     21.54400000     17.64400000
C      25.05200000     21.28500000     18.77600000
C      29.01500000     21.65700000     22.28800000
C      29.94200000     21.10600000     21.24000000
O      29.47000000     20.67700000     20.19000000
H      27.14900000     19.26800000     18.86300000
H      26.03200000     17.98500000     18.28500000
H      27.85100000     16.37300000     18.19200000
H      26.70840000     17.91140000     19.93340000
H      29.02550000     17.55440000     18.87180000
H      28.30110000     17.84390000     17.27160000
H      24.69800000     21.42900000     16.65800000
H      26.07000000     20.94100000     18.66600000
H      23.22570000     21.86490000     17.75520000
H      24.62430000     21.43290000     19.77860000
H      29.58400000     22.29400000     22.98200000
H      28.21680000     22.24540000     21.81190000
H      28.53100000     20.84640000     22.85260000
H      31.02640000     21.09260000     21.42400000
