9
pbedef2svp=-208.7570971597 b3lypdef2svp=-208.88872101783 b3lypvdz=-209.05355521504
N      31.11300000     20.86300000     15.86000000
C      31.28800000     22.20100000     16.41700000
C      32.77600000     22.51900000     16.57700000
O      33.23300000     23.65900000     16.38400000
H      30.62600000     20.16900000     16.39000000
H      30.85300000     22.93800000     15.72600000
H      31.47290000     20.63050000     14.95640000
H      30.74430000     22.27110000     17.37060000
H      33.42330000     21.68640000     16.88970000
