22
pbedef2svp=-328.80267206308
C      35.71500000     26.20300000     17.17200000
C      34.34300000     26.44500000     17.89800000
C      38.81700000     28.02000000     19.88900000
N      40.05900000     28.75800000     19.60700000
C      36.01200000     30.86000000     19.22100000
C      36.08300000     30.19400000     17.87500000
O      35.04800000     29.70200000     17.39300000
H      35.94800000     25.12800000     17.16500000
H      36.51400000     26.74800000     17.69600000
H      34.05700000     27.50400000     17.81100000
H      33.56400000     25.81600000     17.44200000
H      35.62940000     26.57130000     16.13900000
H      34.46340000     26.17810000     18.95830000
H      38.00200000     28.46900000     19.30300000
H      38.52760000     28.04050000     20.95010000
H      39.01380000     27.01710000     19.48230000
H      40.14220000     29.72580000     19.84440000
H      40.71650000     28.18600000     19.11660000
H      35.81700000     31.93400000     19.08500000
H      36.97000000     30.72500000     19.74400000
H      35.20410000     30.41700000     19.82190000
H      37.04120000     30.13710000     17.33770000
