13
pbedef2svp=-323.09210021535
C      40.44900000     32.27800000     17.94500000
O      39.93600000     31.33600000     17.31500000
N      41.00100000     29.87800000     11.93100000
C      40.26900000     30.50800000     14.11500000
C      41.09200000     30.80800000     12.85100000
O      41.82800000     31.80800000     12.68100000
H      40.28750000     33.31930000     17.62930000
H      41.06180000     32.11820000     18.84440000
H      40.44300000     29.06500000     12.10000000
H      40.23000000     31.41000000     14.74400000
H      41.48510000     29.97520000     11.06140000
H      39.25060000     30.21550000     13.81960000
H      40.79390000     29.70730000     14.65650000
