6
pbedef2svp=-169.57010479528 b3lypdef2svp=-169.67249445647 b3lypvdz=-169.80672600851
C      18.45300000     28.94100000     20.59100000
O      17.86000000     27.99400000     21.12800000
N      19.17200000     29.80800000     21.24300000
H      19.62500000     30.50400000     20.68600000
H      18.44580000     29.08700000     19.50080000
H      19.33040000     29.86800000     22.22850000
