15
pbedef2svp=-378.39433946198 b3lypdef2svp=-378.62640128435 b3lypvdz=-378.92393223512
N      26.46500000     25.68900000     21.83300000
C      25.74300000     25.58600000     22.92200000
O      25.32500000     24.48900000     23.37800000
N      26.43600000     30.23200000     20.00400000
C      28.76200000     29.57300000     19.90600000
C      27.33100000     29.31700000     20.36400000
O      27.10100000     28.34600000     21.09700000
H      26.78200000     26.59400000     21.54900000
H      26.71010000     24.89590000     21.27550000
H      25.45900000     26.51300000     23.44170000
H      26.73800000     30.99700000     19.43500000
H      28.81600000     30.60900000     19.54100000
H      25.47470000     30.18950000     20.27620000
H      29.45240000     29.47150000     20.75640000
H      29.04300000     28.90990000     19.07460000
