6
pbedef2svp=-169.57010763822 b3lypdef2svp=-169.6717878408 b3lypvdz=-169.80632156773
N      31.69700000     18.31100000     20.40600000
C      32.12800000     19.36400000     19.75000000
O      32.54600000     19.31700000     18.55800000
H      31.43900000     18.43200000     21.36400000
H      31.60950000     17.39610000     20.01200000
H      32.22500000     20.30980000     20.30330000
