18
pbedef2svp=-326.48040274216 b3lypdef2svp=-326.69450851117 b3lypvdz=-326.9448824181
C      26.23500000     30.05800000      7.49700000
C      26.88200000     31.42800000      7.86200000
O      27.90600000     31.71100000      7.26400000
C      26.34400000     29.05000000      8.64500000
C      27.81000000     28.74800000      8.99900000
N      26.21400000     32.09700000      8.77100000
C      26.77200000     33.43600000      9.19700000
H      25.16500000     30.24200000      7.32000000
H      25.87900000     29.50700000      9.53100000
H      28.22100000     28.06200000      8.24300000
H      28.37700000     29.69100000      8.98500000
H      25.36900000     31.73600000      9.16600000
H      27.66100000     33.67200000      8.59400000
H      26.69280000     29.75830000      6.54270000
H      25.74960000     28.15870000      8.39550000
H      27.91980000     28.28560000      9.99100000
H      27.04930000     33.38190000     10.26010000
H      25.99930000     34.19790000      9.01690000
