12
pbedef2svp=-248.01412402492 b3lypdef2svp=-248.1727366166 b3lypvdz=-248.36522146745
C      27.81900000     20.60900000      7.31600000
O      28.44900000     20.67400000      8.36000000
N      26.55900000     20.22000000      7.28800000
C      24.29900000     20.13400000      6.70400000
C      25.71400000     20.10800000      6.07300000
H      23.56000000     19.67000000      6.03400000
H      23.98900000     21.16400000      6.93600000
H      25.90100000     19.16700000      5.53500000
H      25.87000000     20.95700000      5.39100000
H      28.28810000     20.84830000      6.35030000
H      26.06040000     19.95020000      8.11180000
H      24.42420000     19.54320000      7.62340000
