14
pbedef2svp=-249.14763528082 b3lypdef2svp=-249.31589436719 b3lypvdz=-249.50945493684
C      36.33400000     31.74200000     23.08700000
O      35.57400000     32.61800000     23.48300000
N      34.93000000     34.38400000     25.45100000
C      35.16100000     34.17400000     26.89600000
C      34.71700000     32.76000000     27.28600000
H      37.33660000     31.66700000     23.53330000
H      36.05440000     31.00370000     22.32100000
H      35.33500000     33.73400000     24.80800000
H      34.63100000     34.92600000     27.50000000
H      33.77000000     32.82600000     27.84100000
H      34.56500000     32.17100000     26.37000000
H      34.39030000     35.14080000     25.08230000
H      36.24860000     34.26190000     27.03500000
H      35.46230000     32.25160000     27.91540000
