14
pbedef2svp=-249.21307645982
C      21.65600000     26.84700000      5.24000000
C      21.63100000     26.64200000      3.73100000
N      26.84900000     29.65600000      6.21700000
C      26.10000000     29.25300000      5.20200000
O      24.86500000     29.02400000      5.33000000
H      22.70900000     26.81500000      5.55600000
H      22.06200000     27.53200000      3.24900000
H      22.24200000     25.76100000      3.48700000
H      21.09940000     26.09800000      5.82240000
H      21.27490000     27.85040000      5.48060000
H      20.61700000     26.48570000      3.33430000
H      27.84300000     29.68800000      6.11500000
H      26.43290000     29.92850000      7.08450000
H      26.64200000     29.08530000      4.25960000
