18
pbedef2svp=-326.49120066404 b3lypdef2svp=-326.70529908332 b3lypvdz=-326.95596844961
C      30.92500000     34.30400000     17.75300000
C      26.17900000     34.12700000     17.65000000
C      27.47500000     33.65100000     18.30400000
O      27.50700000     32.58700000     18.95800000
C      25.21400000     34.56500000     18.78000000
N      28.52500000     34.44700000     18.18900000
C      29.80100000     34.14500000     18.82900000
H      30.79800000     33.52100000     16.99100000
H      30.82500000     35.29300000     17.28200000
H      26.36900000     34.95900000     16.95600000
H      24.95100000     33.70000000     19.40600000
H      25.69000000     35.33700000     19.40200000
H      28.44200000     35.28300000     17.64600000
H      29.80100000     33.10000000     19.17200000
H      31.93390000     34.21800000     18.18280000
H      25.76500000     33.25010000     17.13070000
H      24.31050000     34.97140000     18.30190000
H      29.98510000     34.80310000     19.69100000
