22
pbedef2svp=-328.8581492586
C      31.68400000     26.74900000     13.34200000
C      32.06000000     25.25700000     13.36400000
C      35.71500000     26.20300000     17.17200000
C      34.34300000     26.44500000     17.89800000
N      33.54800000     21.52600000     16.95000000
C      32.77600000     22.51900000     16.57700000
O      33.23300000     23.65900000     16.38400000
H      30.62600000     26.86500000     13.61900000
H      32.31300000     27.29600000     14.06000000
H      31.84500000     27.15300000     12.33100000
H      31.94400000     24.89900000     14.39800000
H      33.11820000     25.14210000     13.08670000
H      31.40290000     24.65200000     12.72210000
H      35.94800000     25.12800000     17.16500000
H      36.51400000     26.74800000     17.69600000
H      34.05700000     27.50400000     17.81100000
H      33.56400000     25.81600000     17.44200000
H      35.62940000     26.57130000     16.13900000
H      34.46340000     26.17810000     18.95830000
H      33.14600000     20.63400000     17.15600000
H      34.53630000     21.65660000     17.02930000
H      31.70620000     22.29040000     16.46200000
