8
pbedef2svp=-228.64696863555 b3lypdef2svp=-228.78619738181 b3lypvdz=-228.96848110984
C      40.34000000     27.69200000     24.46800000
C      40.55900000     28.58500000     25.67500000
O      40.71600000     29.80900000     25.45600000
O      40.54900000     28.09000000     26.84000000
H      40.25700000     26.64900000     24.80900000
H      41.20300000     27.79000000     23.79400000
H      40.67600000     28.78100000     27.47900000
H      39.42680000     27.95730000     23.91520000
