11
pbedef2svp=-321.90197813991 b3lypdef2svp=-322.09295192013 b3lypvdz=-322.35012167253
C      38.72800000     26.59100000     12.61100000
O      39.70400000     27.34600000     12.27700000
N      37.63300000     26.54300000     11.86700000
C      37.47100000     27.39100000     10.66800000
C      37.44100000     28.88200000     11.05200000
O      38.02000000     29.77200000     10.38200000
H      36.89700000     25.91700000     12.12400000
H      38.32600000     27.22700000      9.99500000
H      38.77580000     25.98950000     13.53070000
H      36.54750000     27.15040000     10.12100000
H      36.92150000     29.11950000     11.99210000
