14
pbedef2svp=-249.16472254133
N      32.76300000     35.83100000     23.09000000
C      34.14500000     35.47200000     23.48100000
C      36.33400000     31.74200000     23.08700000
O      35.57400000     32.61800000     23.48300000
C      37.73800000     31.63700000     23.71200000
H      32.48200000     36.79100000     23.10200000
H      34.41100000     34.50500000     23.02800000
H      32.10620000     35.12920000     22.81420000
H      34.21370000     35.38510000     24.57540000
H      34.82450000     36.23770000     23.07850000
H      37.65300000     31.71100000     24.80600000
H      36.05440000     31.00370000     22.32100000
H      38.24310000     30.69940000     23.43680000
H      38.30060000     32.50360000     23.33460000
