17
pbedef2svp=-309.14736200793
C      20.14200000     21.59000000     15.14900000
O      19.49900000     22.64500000     15.32100000
C      21.44700000     27.86900000     16.02600000
C      21.32500000     28.81300000     15.00500000
C      20.63800000     26.73500000     16.05300000
C      19.67700000     26.53900000     15.05100000
C      22.49400000     28.05700000     17.10900000
H      20.82360000     21.26920000     15.95060000
H      20.01740000     20.99970000     14.22920000
H      21.97400000     29.67600000     14.99200000
H      20.75100000     26.00800000     16.84400000
H      19.01600000     25.68500000     15.08000000
H      23.42500000     28.39400000     16.63000000
H      22.66300000     27.08400000     17.59400000
H      20.57180000     28.68300000     14.21400000
H      19.61040000     27.27310000     14.23450000
H      22.22700000     28.78610000     17.88820000
