9
pbedef2svp=-208.74527995062 b3lypdef2svp=-208.87591694414 b3lypvdz=-209.04095599935
N      23.88000000     26.72700000     23.85100000
C      25.34900000     26.87200000     23.64300000
C      25.74300000     25.58600000     22.92200000
O      25.32500000     24.48900000     23.37800000
H      23.53200000     26.35300000     24.71100000
H      25.55800000     27.73800000     22.99800000
H      23.24130000     27.00270000     23.13260000
H      25.87450000     26.98350000     24.60290000
H      26.34900000     25.67240000     22.00800000
