16
pbedef2svp=-234.09581749195 b3lypdef2svp=-234.26224146619 b3lypvdz=-234.43974066845
C      26.13600000     35.34600000      6.64000000
C      25.81000000     35.39200000      5.26700000
C      26.77200000     33.43600000      9.19700000
C      25.69500000     34.49800000      8.94600000
C      25.28800000     34.60900000      7.49900000
C      24.14700000     33.96600000      7.03800000
H      27.00600000     35.85800000      7.02300000
H      26.45800000     35.88500000      4.55700000
H      27.66100000     33.67200000      8.59400000
H      24.80600000     34.23900000      9.53900000
H      26.08400000     35.47300000      9.27400000
H      23.51900000     33.41800000      7.72500000
H      24.87610000     34.91010000      4.94210000
H      26.36600000     32.46180000      8.88710000
H      27.04930000     33.38190000     10.26010000
H      23.88440000     34.01700000      5.97100000
