18
pbedef2svp=-272.39244496511
C      40.26900000     30.50800000     14.11500000
C      40.99600000     29.39900000     14.86500000
C      40.22600000     33.71600000     17.50900000
C      40.44900000     32.27800000     17.94500000
O      39.93600000     31.33600000     17.31500000
C      38.69300000     34.10600000     17.59500000
H      40.23000000     31.41000000     14.74400000
H      40.46600000     29.18400000     15.80400000
H      41.02200000     28.49200000     14.24300000
H      39.25060000     30.21550000     13.81960000
H      40.85770000     30.72260000     13.21090000
H      42.02450000     29.71770000     15.09000000
H      40.79400000     34.38800000     18.16900000
H      38.14400000     33.41300000     16.94100000
H      40.53700000     33.86550000     16.46450000
H      41.06180000     32.11820000     18.84440000
H      38.53620000     35.12310000     17.20650000
H      38.30300000     33.98190000     18.61600000
