15
pbedef2svp=-233.13829069438
C      28.34800000     20.54000000     23.06600000
C      29.24700000     19.45600000     23.70500000
C      24.51700000     21.47000000     20.03000000
O      25.24800000     21.30200000     21.19100000
C      23.20400000     21.90700000     20.19200000
H      27.77300000     21.00700000     23.87900000
H      27.66000000     20.02800000     22.37700000
H      29.26900000     18.57400000     23.04800000
H      30.26600000     19.85500000     23.81800000
H      28.83200000     21.35060000     22.50140000
H      28.86580000     19.15900000     24.69320000
H      26.12400000     21.00400000     20.97400000
H      22.79100000     22.04900000     21.18000000
H      24.94470000     21.32210000     19.02740000
H      22.59530000     22.10540000     19.29750000
