6
pbedef2svp=-78.40850720688 b3lypdef2svp=-78.46998371591 b3lypvdz=-78.52967374876
C      22.43700000     22.15700000     19.06500000
C      23.20400000     21.90700000     20.19200000
H      21.42600000     22.51800000     19.18200000
H      22.79100000     22.04900000     21.18000000
H      22.83830000     21.99430000     18.05380000
H      24.24060000     21.56200000     20.06410000
