17
pbedef2svp=-379.49123846358
N      31.11300000     20.86300000     15.86000000
C      31.28800000     22.20100000     16.41700000
C      28.37500000     17.99900000     16.88700000
O      29.32600000     18.78600000     16.69000000
N      31.69700000     18.31100000     20.40600000
C      32.12800000     19.36400000     19.75000000
O      32.54600000     19.31700000     18.55800000
H      30.62600000     20.16900000     16.39000000
H      30.85300000     22.93800000     15.72600000
H      31.47290000     20.63050000     14.95640000
H      32.35780000     22.42960000     16.53200000
H      30.74430000     22.27110000     17.37060000
H      28.18190000     17.59410000     17.89140000
H      27.64840000     17.73860000     16.10330000
H      31.43900000     18.43200000     21.36400000
H      31.60950000     17.39610000     20.01200000
H      32.22500000     20.30980000     20.30330000
