18
pbedef2svp=-326.4884567689 b3lypdef2svp=-326.7023427108 b3lypvdz=-326.95307049345
C      21.63700000     28.92300000     10.35300000
C      21.90700000     30.56300000      5.88100000
C      21.46600000     30.95300000      7.26100000
O      21.06600000     32.11200000      7.53300000
C      21.02300000     31.22300000      4.78400000
N      21.67400000     30.03400000      8.19100000
C      21.41900000     30.25300000      9.62000000
H      22.57800000     28.46500000     10.01500000
H      21.68500000     29.10200000     11.43700000
H      22.89500000     31.02900000      5.75500000
H      20.13500000     30.60100000      4.60000000
H      20.70800000     32.22400000      5.11400000
H      22.02400000     29.14200000      7.90400000
H      20.41000000     30.65000000      9.80700000
H      20.79700000     28.24970000     10.12700000
H      22.05370000     29.49340000      5.67010000
H      21.61400000     31.30690000      3.86010000
H      22.19030000     30.94610000      9.98680000
