23
pbedef2svp=-312.8062288635
C      30.52000000     22.30000000     17.76400000
C      29.00600000     22.04300000     17.44200000
C      26.92600000     18.19100000     18.89200000
C      28.10800000     17.43900000     18.27600000
C      29.01500000     21.65700000     22.28800000
C      29.94200000     21.10600000     21.24000000
O      29.47000000     20.67700000     20.19000000
H      30.88200000     21.52100000     18.45100000
H      28.90200000     21.00100000     17.10700000
H      28.43100000     22.19000000     18.36800000
H      31.06370000     22.22990000     16.81040000
H      30.74120000     23.29180000     18.18510000
H      28.57490000     22.69440000     16.66750000
H      27.14900000     19.26800000     18.86300000
H      26.03200000     17.98500000     18.28500000
H      27.85100000     16.37300000     18.19200000
H      26.70840000     17.91140000     19.93340000
H      29.02550000     17.55440000     18.87180000
H      28.30110000     17.84390000     17.27160000
H      29.58400000     22.29400000     22.98200000
H      28.21680000     22.24540000     21.81190000
H      28.53100000     20.84640000     22.85260000
H      31.02640000     21.09260000     21.42400000
