7
pbedef2svp=-153.52196927012 b3lypdef2svp=-153.62179415397 b3lypvdz=-153.74359854062
C      28.76200000     29.57300000     19.90600000
C      27.33100000     29.31700000     20.36400000
O      27.10100000     28.34600000     21.09700000
H      28.81600000     30.60900000     19.54100000
H      29.45240000     29.47150000     20.75640000
H      29.04300000     28.90990000     19.07460000
H      26.59060000     30.07400000     20.06620000
