14
pbedef2svp=-361.1395372001 b3lypdef2svp=-361.35979022791 b3lypvdz=-361.64565910475
C      23.21200000     32.76200000     11.89100000
C      23.50900000     32.22400000     13.29000000
O      22.54400000     31.94200000     14.03400000
N      24.79000000     32.02100000     13.61800000
C      25.14900000     31.60900000     14.98000000
C      25.69800000     32.87600000     15.66900000
O      26.15800000     33.73000000     14.89400000
H      24.14700000     32.76300000     11.31200000
H      25.50600000     32.15100000     12.93200000
H      24.28500000     31.20800000     15.53000000
H      22.48450000     32.09600000     11.40400000
H      22.85770000     33.80140000     11.95590000
H      25.97710000     30.88500000     14.97070000
H      25.63210000     32.93510000     16.76540000
