11
pbedef2svp=-321.90527274215 b3lypdef2svp=-322.09724554606 b3lypvdz=-322.35360699845
C      41.76500000     34.82900000     30.94400000
O      42.94500000     34.99400000     30.58300000
N      41.16500000     35.53100000     31.89800000
C      41.84500000     36.55000000     32.68600000
C      41.25100000     37.94100000     32.58800000
O      41.10200000     38.52300000     31.50000000
H      40.19900000     35.35100000     32.08500000
H      41.81600000     36.24100000     33.74100000
H      42.89000000     36.60100000     32.34800000
H      41.12190000     34.08860000     30.44580000
H      40.99680000     38.38360000     33.56240000
