15
pbedef2svp=-233.1467837919
C      38.72800000     26.59100000     12.61100000
O      39.70400000     27.34600000     12.27700000
C      40.26900000     30.50800000     14.11500000
C      40.99600000     29.39900000     14.86500000
C      42.44500000     29.84800000     15.18200000
H      38.77580000     25.98950000     13.53070000
H      37.81870000     26.55110000     11.99320000
H      40.23000000     31.41000000     14.74400000
H      40.46600000     29.18400000     15.80400000
H      41.02200000     28.49200000     14.24300000
H      43.02100000     29.92200000     14.24800000
H      42.42600000     30.82900000     15.68000000
H      39.25060000     30.21550000     13.81960000
H      40.85770000     30.72260000     13.21090000
H      42.91390000     29.10660000     15.84570000
