22
pbedef2svp=-328.85261741431
C      32.35200000     16.70000000     14.63000000
C      32.49200000     18.19300000     14.99500000
C      35.66700000     20.38300000     17.44700000
C      37.12800000     20.29300000     17.87200000
N      31.69700000     18.31100000     20.40600000
C      32.12800000     19.36400000     19.75000000
O      32.54600000     19.31700000     18.55800000
H      33.13400000     16.12100000     15.14400000
H      31.36200000     16.33700000     14.94300000
H      32.46000000     16.57700000     13.54200000
H      32.40300000     18.31600000     16.08500000
H      31.72450000     18.80410000     14.49760000
H      33.44980000     18.59970000     14.63820000
H      35.07400000     19.98200000     18.28200000
H      35.55700000     19.72700000     16.57100000
H      37.75600000     20.74400000     17.09000000
H      37.26100000     20.84600000     18.81300000
H      35.20970000     21.34580000     17.17520000
H      37.44130000     19.24960000     18.02400000
H      31.43900000     18.43200000     21.36400000
H      31.60950000     17.39610000     20.01200000
H      32.22500000     20.30980000     20.30330000
