6
pbedef2svp=-169.57303219555 b3lypdef2svp=-169.67565290566 b3lypvdz=-169.80968040901
O      42.77000000     27.65500000     15.90600000
N      43.89800000     29.25200000     17.05000000
C      43.09000000     28.82800000     16.09500000
H      44.30200000     28.59800000     17.69000000
H      44.10600000     30.22700000     17.13300000
H      42.62110000     29.56940000     15.43130000
