14
pbedef2svp=-361.13850093305 b3lypdef2svp=-361.35897891559 b3lypvdz=-361.64468316152
C      30.95500000     35.21100000      8.45900000
O      30.02500000     34.61800000      9.04000000
C      29.54200000     39.02000000     10.65300000
C      30.49400000     38.26100000      9.72900000
O      30.84900000     38.85000000      8.70600000
N      30.79500000     37.01500000     10.09500000
C      31.72000000     36.28900000      9.17600000
H      29.47700000     38.47800000     11.60800000
H      30.42700000     36.59700000     10.92600000
H      32.03600000     37.01200000      8.41000000
H      31.19690000     35.02270000      7.40260000
H      30.00500000     40.00260000     10.82670000
H      28.53770000     39.04040000     10.20460000
H      32.63200000     35.99860000      9.71820000
