7
pbedef2svp=-153.52219744431 b3lypdef2svp=-153.62113283002 b3lypvdz=-153.74335187791
O      15.44000000     21.81900000     12.37800000
C      17.58600000     21.28200000     13.46100000
C      16.57600000     21.25800000     12.31500000
H      17.45300000     20.36800000     14.05800000
H      17.37700000     22.16200000     14.08700000
H      18.63490000     21.33160000     13.13340000
H      16.86290000     20.70400000     11.40900000
