5
pbedef2svp=-40.41414287487 b3lypdef2svp=-40.45100620088 b3lypvdz=-40.47955394949
C      26.82600000     24.52100000     21.01200000
H      25.96700000     23.83400000     21.00400000
H      26.55630000     25.39350000     21.62530000
H      27.67130000     23.98540000     21.46870000
H      26.98190000     24.85930000     19.97700000
