15
pbedef2svp=-233.14891882967 b3lypdef2svp=-233.31418228978 b3lypvdz=-233.49381329232
C      40.67500000     35.52700000     13.20000000
O      40.81400000     36.52800000     13.91100000
C      38.69300000     34.10600000     17.59500000
C      38.47100000     35.54600000     17.04500000
C      36.95800000     35.74600000     16.68000000
H      39.94580000     35.54160000     12.37660000
H      41.20850000     34.58460000     13.39280000
H      38.14400000     33.41300000     16.94100000
H      38.76200000     36.27900000     17.81200000
H      39.08700000     35.69300000     16.14500000
H      36.80500000     36.76400000     16.29200000
H      36.66600000     35.01400000     15.91300000
H      36.34200000     35.60000000     17.57900000
H      39.75750000     33.83520000     17.53530000
H      38.30300000     33.98190000     18.61600000
