11
pbedef2svp=-321.90232498138 b3lypdef2svp=-322.09547558415 b3lypvdz=-322.35180531477
C      29.60400000     43.50700000     13.39300000
O      29.21900000     43.98100000     12.30100000
N      30.56300000     42.62300000     13.49500000
C      31.19100000     42.01200000     12.33100000
C      30.45900000     40.66600000     12.13000000
O      30.25300000     39.99100000     13.13300000
H      30.87700000     42.35700000     14.40600000
H      31.04300000     42.64100000     11.44100000
H      29.14480000     43.83930000     14.33570000
H      32.26270000     41.79850000     12.45690000
H      30.21240000     40.39270000     11.09340000
