18
pbedef2svp=-326.49139868059 b3lypdef2svp=-326.70542706251 b3lypvdz=-326.95610195944
C      30.92500000     34.30400000     17.75300000
C      32.34500000     34.18300000     18.35800000
C      26.17900000     34.12700000     17.65000000
C      27.47500000     33.65100000     18.30400000
O      27.50700000     32.58700000     18.95800000
N      28.52500000     34.44700000     18.18900000
C      29.80100000     34.14500000     18.82900000
H      30.79800000     33.52100000     16.99100000
H      30.82500000     35.29300000     17.28200000
H      32.46000000     34.90800000     19.17700000
H      26.36900000     34.95900000     16.95600000
H      28.44200000     35.28300000     17.64600000
H      29.80100000     33.10000000     19.17200000
H      32.49840000     33.16000000     18.73210000
H      33.07160000     34.40330000     17.56200000
H      25.76500000     33.25010000     17.13070000
H      25.49380000     34.43800000     18.45240000
H      29.98510000     34.80310000     19.69100000
