6
pbedef2svp=-169.57162159582 b3lypdef2svp=-169.6735058095 b3lypvdz=-169.8081720355
N      41.00100000     29.87800000     11.93100000
C      41.09200000     30.80800000     12.85100000
O      41.82800000     31.80800000     12.68100000
H      40.44300000     29.06500000     12.10000000
H      41.48510000     29.97520000     11.06140000
H      40.50330000     30.59340000     13.75510000
