17
pbedef2svp=-197.27878441303 b3lypdef2svp=-197.43176443752 b3lypvdz=-197.57809171496
C      22.65000000     24.51600000     12.17200000
C      22.66200000     24.81900000     13.69900000
C      22.08500000     22.25400000     16.58100000
C      22.94500000     21.95100000     17.78500000
C      22.43700000     22.15700000     19.06500000
H      23.21600000     23.58600000     12.01300000
H      22.10700000     25.74900000     13.89000000
H      22.18400000     23.98900000     14.23900000
H      21.61880000     24.33800000     11.83300000
H      23.16720000     25.32030000     11.62840000
H      23.69790000     24.93390000     14.05070000
H      22.74300000     22.39600000     15.71100000
H      21.52900000     23.18300000     16.77600000
H      21.42600000     22.51800000     19.18200000
H      21.36190000     21.45970000     16.34380000
H      23.99130000     21.63010000     17.67380000
H      23.04570000     21.95860000     19.95950000
