13
pbedef2svp=-380.9822659092 b3lypdef2svp=-381.21231784723 b3lypvdz=-381.51698689247
C      31.92300000     20.43600000      8.75500000
O      32.49300000     19.37400000      8.45600000
O      31.83800000     21.40200000      7.96800000
C      30.79600000     19.08300000     10.56600000
C      30.49100000     19.16200000     12.04000000
O      29.36700000     19.52300000     12.44100000
C      31.15500000     20.51500000     10.04800000
H      32.26600000     21.18200000      7.14900000
H      31.64900000     18.41000000     10.39300000
H      30.22700000     21.08200000      9.88300000
H      31.76900000     21.02800000     10.80200000
H      29.91060000     18.72500000     10.02010000
H      31.33860000     18.97400000     12.71540000
