23
pbedef2svp=-312.79926949065
C      38.52800000     32.85400000     23.18200000
C      39.91900000     32.85400000     23.84000000
C      35.92600000     35.97900000     21.73700000
C      35.00300000     35.08400000     20.92000000
C      35.16100000     34.17400000     26.89600000
C      36.67100000     34.29600000     27.08900000
O      37.30500000     33.23300000     26.79500000
H      38.63400000     32.78100000     22.09000000
H      37.99600000     33.78200000     23.43800000
H      39.79500000     32.89900000     24.93200000
H      40.44000000     31.92400000     23.56800000
H      37.96540000     31.98740000     23.55940000
H      40.52860000     33.71070000     23.51670000
H      36.73600000     35.36100000     22.15200000
H      35.56200000     34.65300000     20.07600000
H      34.62000000     34.27400000     21.55700000
H      34.16100000     35.67900000     20.53700000
H      35.34590000     36.39700000     22.57290000
H      36.36930000     36.78820000     21.13810000
H      34.63100000     34.92600000     27.50000000
H      34.98910000     34.33030000     25.82080000
H      34.84230000     33.15910000     27.17590000
H      37.11890000     35.23360000     27.45010000
