15
pbedef2svp=-287.16260319738
N      23.85300000     36.43200000     17.78100000
C      22.82400000     34.51400000     17.78200000
C      23.97800000     35.12100000     18.12600000
C      25.03400000     30.17000000     20.40100000
C      24.10100000     30.14900000     19.19600000
O      24.19600000     30.94800000     18.28700000
H      24.54200000     37.13900000     17.94000000
H      22.56500000     33.48000000     17.95500000
H      22.96570000     36.57880000     17.34380000
H      22.19620000     35.27230000     17.29120000
H      24.88150000     34.71460000     18.60410000
H      24.85900000     29.26400000     21.00000000
H      26.09140000     30.21680000     20.10160000
H      24.76010000     31.04090000     21.01460000
H      23.32440000     29.37080000     19.23240000
