14
pbedef2svp=-249.1687243202
N      29.72100000     43.67300000     15.88500000
C      28.97800000     43.96000000     14.67800000
C      30.22500000     38.64300000     16.66200000
C      29.66400000     39.83900000     17.43400000
O      28.85000000     40.56500000     16.85900000
H      29.42000000     42.90600000     16.45100000
H      27.99600000     43.47100000     14.76400000
H      28.84100000     45.05000000     14.61900000
H      30.51820000     44.19570000     16.18720000
H      29.43720000     43.62770000     13.73530000
H      30.16200000     37.75100000     17.30200000
H      29.62730000     38.48370000     15.75240000
H      31.28290000     38.80740000     16.40920000
H      30.05530000     40.03130000     18.44390000
