12
pbedef2svp=-248.03385641287 b3lypdef2svp=-248.19169130685 b3lypvdz=-248.38447973446
C      30.50500000     33.88400000      6.51200000
C      31.40900000     32.68000000      6.44600000
O      32.61900000     32.81200000      6.12500000
C      30.09100000     34.39300000      5.07800000
N      30.88400000     31.48500000      6.66600000
H      29.59500000     33.63500000      7.07700000
H      29.47000000     33.64700000      4.56000000
H      29.90500000     31.41600000      6.85800000
H      31.04940000     34.69580000      7.01660000
H      31.09520000     34.48230000      4.63800000
H      29.60530000     35.37950000      5.10770000
H      31.43200000     30.64880000      6.64730000
