15
pbedef2svp=-233.16680706233
C      30.83200000     23.69900000     18.35800000
C      30.52000000     22.30000000     17.76400000
O      33.54400000     23.08600000     20.88300000
C      33.63800000     20.71600000     21.24200000
C      34.17400000     22.12900000     21.35400000
H      30.30700000     23.81600000     19.31800000
H      31.91600000     23.79500000     18.51900000
H      30.49400000     24.47800000     17.65800000
H      30.88200000     21.52100000     18.45100000
H      31.06370000     22.22990000     16.81040000
H      29.45860000     22.11980000     17.53830000
H      33.51900000     20.30000000     22.25300000
H      34.35900000     20.10600000     20.67800000
H      32.66610000     20.68350000     20.72780000
H      35.12210000     22.29880000     21.88520000
