15
pbedef2svp=-378.33041203233 b3lypdef2svp=-378.56424219536 b3lypvdz=-378.86317047999
C      30.32000000     16.69800000     19.05100000
O      30.19800000     15.65700000     18.36600000
N      29.34000000     17.59400000     19.07600000
N      27.94200000     22.44800000     21.64800000
C      29.01500000     21.65700000     22.28800000
C      29.94200000     21.10600000     21.24000000
O      29.47000000     20.67700000     20.19000000
H      29.44000000     18.40200000     19.65700000
H      31.24010000     16.89260000     19.62160000
H      28.50590000     17.48910000     18.53440000
H      27.17100000     21.98000000     21.21600000
H      29.58400000     22.29400000     22.98200000
H      27.98100000     23.44720000     21.64430000
H      28.53100000     20.84640000     22.85260000
H      31.02640000     21.09260000     21.42400000
