8
pbedef2svp=-79.63836751404 b3lypdef2svp=-79.7036421453 b3lypvdz=-79.76124552284
C      26.26600000     25.41300000      2.84200000
C      25.11200000     24.88000000      3.64900000
H      25.88000000     25.74300000      1.86700000
H      24.23300000     25.51000000      3.45100000
H      24.90700000     23.85100000      3.31900000
H      27.06770000     24.67930000      2.67180000
H      26.72570000     26.28420000      3.33160000
H      25.28820000     24.86540000      4.73470000
