15
pbedef2svp=-378.34731478576 b3lypdef2svp=-378.57696989258 b3lypvdz=-378.87464203246
N      31.51000000     18.93600000     12.85200000
C      31.39800000     19.06400000     14.28600000
C      31.59300000     20.55300000     14.65500000
O      32.15900000     21.31100000     13.86100000
C      32.49200000     18.19300000     14.99500000
O      33.77800000     18.73900000     14.51600000
N      31.11300000     20.86300000     15.86000000
H      32.38900000     18.66700000     12.45900000
H      30.40500000     18.73500000     14.62700000
H      32.40300000     18.31600000     16.08500000
H      34.49400000     18.25400000     14.90900000
H      30.62600000     20.16900000     16.39000000
H      30.73940000     19.10690000     12.23800000
H      32.39220000     17.12890000     14.73480000
H      31.23290000     21.77950000     16.24150000
