21
pbedef2svp=-311.5635404552
C      28.11300000     39.04900000     10.01500000
C      27.58800000     37.63500000      9.71500000
C      30.95500000     35.21100000      8.45900000
O      30.02500000     34.61800000      9.04000000
C      25.69500000     34.49800000      8.94600000
C      25.28800000     34.60900000      7.49900000
C      24.14700000     33.96600000      7.03800000
H      28.15100000     39.62800000      9.08100000
H      26.58500000     37.70300000      9.26900000
H      28.26800000     37.13300000      9.01200000
H      27.53600000     37.05800000     10.65000000
H      29.11730000     39.02860000     10.46340000
H      27.48210000     39.55870000     10.75800000
H      31.51460000     35.99950000      8.98350000
H      31.19690000     35.02270000      7.40260000
H      24.80600000     34.23900000      9.53900000
H      26.08400000     35.47300000      9.27400000
H      23.51900000     33.41800000      7.72500000
H      26.46770000     33.73610000      9.12610000
H      25.94760000     35.18220000      6.83090000
H      23.88440000     34.01700000      5.97100000
