9
pbedef2svp=-208.74841097545 b3lypdef2svp=-208.87971634075 b3lypvdz=-209.04450690009
N      27.75100000     35.86700000     13.74000000
C      27.69100000     37.31500000     14.14300000
C      28.46900000     37.47500000     15.42000000
O      28.21300000     36.75300000     16.41100000
H      27.09800000     35.21600000     14.12700000
H      28.13900000     37.93800000     13.35500000
H      28.44000000     35.55160000     13.08750000
H      26.63020000     37.58090000     14.26120000
H      29.24750000     38.25190000     15.44120000
