6
pbedef2svp=-115.48425759856 b3lypdef2svp=-115.56245120333 b3lypvdz=-115.65390002717
O      33.77800000     18.73900000     14.51600000
C      32.49200000     18.19300000     14.99500000
H      34.49400000     18.25400000     14.90900000
H      32.40300000     18.31600000     16.08500000
H      31.72450000     18.80410000     14.49760000
H      32.39220000     17.12890000     14.73480000
