11
pbedef2svp=-209.91945134306 b3lypdef2svp=-210.06035102503 b3lypvdz=-210.22476329021
N      27.75100000     35.86700000     13.74000000
C      27.69100000     37.31500000     14.14300000
C      25.69800000     32.87600000     15.66900000
O      26.15800000     33.73000000     14.89400000
H      27.09800000     35.21600000     14.12700000
H      28.13900000     37.93800000     13.35500000
H      28.44000000     35.55160000     13.08750000
H      28.26010000     37.43200000     15.07710000
H      26.63020000     37.58090000     14.26120000
H      25.30670000     31.97290000     15.17790000
H      25.63210000     32.93510000     16.76540000
