11
pbedef2svp=-267.79936697547
O      29.80900000     29.39500000      5.54500000
C      31.02200000     29.28800000      5.66500000
C      26.23500000     30.05800000      7.49700000
C      26.88200000     31.42800000      7.86200000
O      27.90600000     31.71100000      7.26400000
H      31.49180000     29.99600000      6.36360000
H      31.70340000     28.55290000      5.21190000
H      25.16500000     30.24200000      7.32000000
H      26.69280000     29.75830000      6.54270000
H      26.31330000     29.33410000      8.32150000
H      26.32170000     31.98910000      8.62440000
