6
pbedef2svp=-438.30444444858 b3lypdef2svp=-438.46289268702 b3lypvdz=-438.61969575871
S      23.93000000     23.95900000      5.90400000
C      24.44700000     23.98400000      7.62000000
H      23.69300000     23.47500000      8.23800000
H      25.41300000     23.46700000      7.71900000
H      24.55300000     25.02600000      7.95600000
H      24.95960000     24.61090000      5.34690000
