9
pbedef2svp=-208.79814412719 b3lypdef2svp=-208.92766303918 b3lypvdz=-209.09108590576
C      30.22500000     38.64300000     16.66200000
N      29.42600000     38.43000000     15.44600000
C      28.46900000     37.47500000     15.42000000
O      28.21300000     36.75300000     16.41100000
H      30.16200000     37.75100000     17.30200000
H      29.59100000     38.99300000     14.63600000
H      29.82170000     39.50280000     17.21700000
H      31.28290000     38.80740000     16.40920000
H      27.89990000     37.35800000     14.48590000
