12
pbedef2svp=-248.02265220345 b3lypdef2svp=-248.18141280961 b3lypvdz=-248.37346114096
C      26.88200000     31.42800000      7.86200000
O      27.90600000     31.71100000      7.26400000
N      26.21400000     32.09700000      8.77100000
C      26.77200000     33.43600000      9.19700000
C      25.69500000     34.49800000      8.94600000
H      25.36900000     31.73600000      9.16600000
H      27.66100000     33.67200000      8.59400000
H      24.80600000     34.23900000      9.53900000
H      26.08400000     35.47300000      9.27400000
H      26.42530000     30.46100000      7.60440000
H      27.04930000     33.38190000     10.26010000
H      25.39800000     34.57900000      7.89000000
