6
pbedef2svp=-169.57218030235 b3lypdef2svp=-169.67437062728 b3lypvdz=-169.80876238199
C      30.95500000     35.21100000      8.45900000
O      30.02500000     34.61800000      9.04000000
N      31.24400000     34.98600000      7.19700000
H      31.93100000     35.53000000      6.71500000
H      31.51460000     35.99950000      8.98350000
H      30.74910000     34.24800000      6.73830000
