6
pbedef2svp=-169.56809968775 b3lypdef2svp=-169.67084950172 b3lypvdz=-169.8047313976
N      27.75100000     35.86700000     13.74000000
C      28.63800000     35.46100000     12.90000000
O      29.52200000     36.10300000     12.32000000
H      27.09800000     35.21600000     14.12700000
H      27.71110000     36.82960000     14.00790000
H      28.61460000     34.39800000     12.61790000
