16
pbedef2svp=-159.27807353547
C      29.96300000     33.31700000     12.81400000
C      28.60500000     33.96500000     12.50300000
C      32.99500000     35.88300000      9.93400000
C      33.10900000     36.38100000     11.43500000
H      30.75600000     33.85900000     12.27900000
H      27.82500000     33.46000000     13.09200000
H      30.14340000     33.37300000     13.89770000
H      29.95870000     32.26700000     12.48600000
H      28.34310000     33.94830000     11.43480000
H      28.62840000     35.02800000     12.78510000
H      33.82000000     36.38500000      9.40700000
H      34.05800000     36.03000000     11.86700000
H      33.08000000     37.48000000     11.46000000
H      32.26900000     35.97900000     12.02000000
H      32.08300000     36.17340000      9.39180000
H      33.21760000     34.80790000      9.86670000
