15
pbedef2svp=-233.1482650878 b3lypdef2svp=-233.31283506302 b3lypvdz=-233.4928151385
C      40.16800000     30.02600000     19.91800000
O      39.26400000     30.66200000     20.52100000
C      38.69300000     34.10600000     17.59500000
C      38.47100000     35.54600000     17.04500000
C      38.14600000     33.93200000     19.02700000
H      41.10530000     30.55160000     19.68310000
H      40.07650000     28.96140000     19.65690000
H      38.14400000     33.41300000     16.94100000
H      38.76200000     36.27900000     17.81200000
H      39.08700000     35.69300000     16.14500000
H      37.08200000     34.21100000     19.05000000
H      38.25700000     32.88200000     19.33700000
H      38.70900000     34.57900000     19.71600000
H      39.75750000     33.83520000     17.53530000
H      37.41040000     35.68620000     16.78910000
