16
pbedef2svp=-362.32171320014
C      24.18400000     16.01600000     16.61900000
O      25.30300000     15.89400000     17.15200000
C      28.37500000     17.99900000     16.88700000
O      29.32600000     18.78600000     16.69000000
C      26.92600000     18.19100000     18.89200000
N      27.51000000     17.68900000     15.95400000
C      28.10800000     17.43900000     18.27600000
H      23.65580000     16.97670000     16.70810000
H      23.65440000     15.22930000     16.06170000
H      27.14900000     19.26800000     18.86300000
H      26.03200000     17.98500000     18.28500000
H      26.75900000     17.07400000     16.19600000
H      27.85100000     16.37300000     18.19200000
H      26.70840000     17.91140000     19.93340000
H      27.55320000     18.02870000     15.01450000
H      29.02550000     17.55440000     18.87180000
