7
pbedef2svp=-153.52388553225 b3lypdef2svp=-153.6241406759 b3lypvdz=-153.74580078669
C      21.65600000     26.84700000      5.24000000
C      21.12700000     28.24000000      5.57400000
O      19.95800000     28.46500000      5.84200000
H      22.70900000     26.81500000      5.55600000
H      21.09940000     26.09800000      5.82240000
H      21.63790000     26.69890000      4.15020000
H      21.92450000     28.99720000      5.59940000
