13
pbedef2svp=-323.10199149989 b3lypdef2svp=-323.30242849988 b3lypvdz=-323.55895716962
C      32.26200000     20.67000000     20.51400000
C      32.12800000     19.36400000     19.75000000
O      32.54600000     19.31700000     18.55800000
N      33.54800000     21.52600000     16.95000000
C      32.77600000     22.51900000     16.57700000
O      33.23300000     23.65900000     16.38400000
H      32.31500000     21.45700000     19.74700000
H      31.48610000     20.98670000     21.22650000
H      33.23390000     20.70250000     21.02820000
H      31.76700000     18.48210000     20.29940000
H      33.14600000     20.63400000     17.15600000
H      34.53630000     21.65660000     17.02930000
H      31.70620000     22.29040000     16.46200000
