7
pbedef2svp=-153.51785233834 b3lypdef2svp=-153.61681833457 b3lypvdz=-153.73893158031
C      21.18400000     24.26300000     11.69000000
C      21.11000000     24.11100000     10.17300000
O      21.84100000     23.19800000      9.68600000
H      20.53700000     25.08800000     12.02200000
H      20.84000000     23.30620000     12.10980000
H      22.21520000     24.44100000     12.02900000
H      20.41860000     24.75590000      9.61080000
