14
pbedef2svp=-361.14816769233 b3lypdef2svp=-361.36759238533 b3lypvdz=-361.65363671606
C      19.06500000     21.35200000     12.99900000
C      19.44200000     22.74500000     12.51000000
O      18.57100000     23.61000000     12.28900000
C      17.58600000     21.28200000     13.46100000
C      16.57600000     21.25800000     12.31500000
O      15.44000000     21.81900000     12.37800000
N      20.71700000     22.96400000     12.26000000
H      19.16200000     20.67100000     12.14100000
H      17.45300000     20.36800000     14.05800000
H      17.37700000     22.16200000     14.08700000
H      21.38500000     22.24600000     12.45600000
H      19.75590000     21.00360000     13.78080000
H      16.86290000     20.70400000     11.40900000
H      21.02970000     23.83380000     11.87830000
