15
pbedef2svp=-304.23515982195 b3lypdef2svp=-304.42769505627 b3lypvdz=-304.66240096242
C      26.17900000     34.12700000     17.65000000
C      25.21400000     34.56500000     18.78000000
C      23.97800000     35.12100000     18.12600000
N      23.85300000     36.43200000     17.78100000
C      22.82400000     34.51400000     17.78200000
C      22.67400000     36.62700000     17.20000000
N      22.04500000     35.45500000     17.17300000
H      26.36900000     34.95900000     16.95600000
H      24.95100000     33.70000000     19.40600000
H      25.69000000     35.33700000     19.40200000
H      24.54200000     37.13900000     17.94000000
H      22.56500000     33.48000000     17.95500000
H      22.29600000     37.56400000     16.82000000
H      25.76500000     33.25010000     17.13070000
H      27.11220000     33.78430000     18.12090000
