18
pbedef2svp=-326.47996432639 b3lypdef2svp=-326.69343698599 b3lypvdz=-326.94415885811
C      30.92500000     34.30400000     17.75300000
C      32.34500000     34.18300000     18.35800000
C      32.55500000     32.78300000     18.87000000
C      27.47500000     33.65100000     18.30400000
O      27.50700000     32.58700000     18.95800000
N      28.52500000     34.44700000     18.18900000
C      29.80100000     34.14500000     18.82900000
H      30.79800000     33.52100000     16.99100000
H      30.82500000     35.29300000     17.28200000
H      32.46000000     34.90800000     19.17700000
H      33.56400000     32.69700000     19.30000000
H      31.80600000     32.56000000     19.64400000
H      32.44800000     32.06900000     18.04000000
H      28.44200000     35.28300000     17.64600000
H      29.80100000     33.10000000     19.17200000
H      33.07160000     34.40330000     17.56200000
H      26.54180000     33.99370000     17.83310000
H      29.98510000     34.80310000     19.69100000
