11
pbedef2svp=-209.91459463329
O      42.77000000     27.65500000     15.90600000
C      43.09000000     28.82800000     16.09500000
C      41.03500000     27.90900000     18.87900000
N      40.05900000     28.75800000     19.60700000
H      42.62110000     29.56940000     15.43130000
H      43.76290000     29.18110000     16.89030000
H      41.73000000     27.40700000     19.56800000
H      41.60700000     28.49000000     18.14100000
H      40.35580000     27.19270000     18.39360000
H      40.14220000     29.72580000     19.84440000
H      39.21520000     28.25660000     19.79860000
