13
pbedef2svp=-174.07096615692
C      30.84700000     30.93100000     24.11800000
C      29.41200000     30.79600000     24.59800000
C      34.33800000     29.10300000     26.65000000
N      34.01400000     28.65700000     25.45700000
H      31.49100000     30.45600000     24.87200000
H      31.07600000     32.00600000     24.06500000
H      28.75300000     31.37500000     23.93500000
H      29.12000000     29.73600000     24.57000000
H      31.10430000     30.49220000     23.14270000
H      29.30970000     31.17180000     25.62670000
H      33.57700000     27.75900000     25.49900000
H      34.91050000     30.04000000     26.71520000
H      34.14820000     28.54850000     27.58080000
