9
pbedef2svp=-208.75111798439 b3lypdef2svp=-208.88283745129 b3lypvdz=-209.04737398234
N      29.69400000     29.43600000     21.05400000
C      28.76200000     29.57300000     19.90600000
C      27.33100000     29.31700000     20.36400000
O      27.10100000     28.34600000     21.09700000
H      29.93800000     28.52400000     21.38400000
H      28.81600000     30.60900000     19.54100000
H      30.08150000     30.24190000     21.50160000
H      29.04300000     28.90990000     19.07460000
H      26.59060000     30.07400000     20.06620000
