16
pbedef2svp=-362.33323778163 b3lypdef2svp=-362.56274049014 b3lypvdz=-362.84801029714
N      26.58500000     20.06300000     13.37800000
C      27.57400000     18.19200000     14.56300000
C      26.48200000     19.28000000     14.43200000
O      25.60900000     19.38800000     15.28700000
C      31.39800000     19.06400000     14.28600000
C      31.59300000     20.55300000     14.65500000
O      32.15900000     21.31100000     13.86100000
H      27.36400000     19.94300000     12.76300000
H      28.56000000     18.63600000     14.36100000
H      25.91220000     20.77310000     13.17030000
H      27.52640000     17.81830000     15.59650000
H      27.37990000     17.38960000     13.83610000
H      30.40500000     18.73500000     14.62700000
H      31.48330000     18.96650000     13.19370000
H      32.16550000     18.45290000     14.78340000
H      31.19710000     20.80870000     15.64890000
