11
pbedef2svp=-209.92738202971
C      33.20600000     26.31100000     20.12200000
N      33.45500000     25.91000000     21.54600000
C      33.58900000     30.18900000     22.18100000
O      33.58000000     29.00900000     22.49900000
H      32.92400000     27.37300000     20.07200000
H      32.40100000     25.69700000     19.69200000
H      32.62200000     26.04800000     22.08200000
H      33.71700000     24.94500000     21.58000000
H      34.14430000     26.14250000     19.57330000
H      34.42380000     30.68740000     21.66660000
H      32.67090000     30.79060000     22.25370000
