19
pbedef2svp=-252.56045870933 b3lypdef2svp=-252.93096851182 b3lypvdz=-252.93096851182
C      27.69100000     37.31500000     14.14300000
C      26.21900000     37.68400000     14.30700000
C      25.88400000     39.13900000     14.61500000
C      24.34800000     39.29600000     14.64200000
C      23.86500000     40.72300000     14.74900000
N      22.37500000     40.72000000     14.90700000
H      28.13900000     37.93800000     13.35500000
H      25.70800000     37.42000000     13.36900000
H      25.81700000     37.07300000     15.12800000
H      26.30200000     39.41600000     15.59400000
H      26.30900000     39.79000000     13.83700000
H      23.94200000     38.86500000     13.71500000
H      23.96100000     38.73700000     15.50600000
H      24.32800000     41.20500000     15.62300000
H      24.13900000     41.27500000     13.83800000
H      22.04500000     41.66100000     14.97900000
H      21.95700000     40.28000000     14.11300000
H      27.73490000     36.25610000     13.84830000
H      28.26010000     37.43200000     15.07710000
