9
pbedef2svp=-208.8118297184 b3lypdef2svp=-208.94178550565 b3lypvdz=-209.10544671584
O      28.21300000     36.75300000     16.41100000
C      27.69100000     37.31500000     14.14300000
C      28.46900000     37.47500000     15.42000000
N      29.42600000     38.43000000     15.44600000
H      28.13900000     37.93800000     13.35500000
H      29.59100000     38.99300000     14.63600000
H      27.73490000     36.25610000     13.84830000
H      26.63020000     37.58090000     14.26120000
H      29.96930000     38.57480000     16.27290000
