15
pbedef2svp=-287.21584085206
C      22.08500000     22.25400000     16.58100000
C      22.94500000     21.95100000     17.78500000
C      22.43700000     22.15700000     19.06500000
N      24.24000000     19.23300000     12.24600000
C      24.24100000     20.43600000     12.85700000
O      23.26400000     20.95100000     13.32900000
H      22.74300000     22.39600000     15.71100000
H      21.52900000     23.18300000     16.77600000
H      21.42600000     22.51800000     19.18200000
H      21.36190000     21.45970000     16.34380000
H      23.99130000     21.63010000     17.67380000
H      23.04570000     21.95860000     19.95950000
H      25.09100000     18.79700000     11.95400000
H      23.35340000     18.79510000     12.09710000
H      25.21610000     20.92100000     13.01190000
