8
pbedef2svp=-79.64019156669 b3lypdef2svp=-79.70544934475 b3lypvdz=-79.76314414213
C      38.52800000     32.85400000     23.18200000
C      39.91900000     32.85400000     23.84000000
H      38.63400000     32.78100000     22.09000000
H      37.99600000     33.78200000     23.43800000
H      39.79500000     32.89900000     24.93200000
H      40.44000000     31.92400000     23.56800000
H      37.96540000     31.98740000     23.55940000
H      40.52860000     33.71070000     23.51670000
