9
pbedef2svp=-208.81154183184 b3lypdef2svp=-208.94214545252 b3lypvdz=-209.10566295643
N      34.73400000     25.82200000     14.94900000
C      33.53300000     25.09700000     12.97800000
C      34.44100000     26.09900000     13.68400000
O      34.88300000     27.09000000     13.09300000
H      34.36300000     24.99500000     15.37200000
H      33.61300000     25.28200000     11.89700000
H      35.32050000     26.42960000     15.48450000
H      33.89050000     24.07720000     13.18320000
H      32.47480000     25.21190000     13.25530000
