14
pbedef2svp=-361.14005201798 b3lypdef2svp=-361.35978570087 b3lypvdz=-361.64582902834
C      38.81700000     28.02000000     19.88900000
C      38.42100000     28.04800000     21.34100000
O      37.21300000     28.03600000     21.70400000
N      39.37400000     28.09000000     22.24000000
C      39.06300000     28.06300000     23.69500000
C      38.36500000     29.33500000     24.15900000
O      37.68400000     29.39000000     25.22100000
H      38.00200000     28.46900000     19.30300000
H      40.32700000     28.14100000     21.94300000
H      38.35200000     27.23900000     23.85600000
H      39.74510000     28.57150000     19.67830000
H      39.01380000     27.01710000     19.48230000
H      39.97620000     27.79770000     24.24780000
H      38.40990000     30.19820000     23.47870000
