16
pbedef2svp=-362.26572411199
O      23.57900000     31.32100000      9.55400000
C      22.50400000     31.22800000     10.13600000
N      26.21400000     32.09700000      8.77100000
C      26.77200000     33.43600000      9.19700000
C      27.15100000     33.36200000     10.65000000
O      26.35000000     32.77800000     11.39500000
C      25.69500000     34.49800000      8.94600000
H      21.73270000     30.53490000      9.76920000
H      22.28250000     31.77120000     11.06650000
H      25.36900000     31.73600000      9.16600000
H      27.66100000     33.67200000      8.59400000
H      24.80600000     34.23900000      9.53900000
H      26.08400000     35.47300000      9.27400000
H      26.72330000     31.58690000      8.07790000
H      28.06890000     33.84290000     11.01910000
H      25.39800000     34.57900000      7.89000000
