15
pbedef2svp=-287.26207155225 b3lypdef2svp=-287.44763834001 b3lypvdz=-287.66929019121
C      23.37600000     25.64500000     11.40900000
N      20.29100000     24.87500000      9.50700000
C      21.18400000     24.26300000     11.69000000
C      21.11000000     24.11100000     10.17300000
O      21.84100000     23.19800000      9.68600000
C      22.65000000     24.51600000     12.17200000
H      24.39600000     25.75900000     11.80600000
H      23.42500000     25.39200000     10.34000000
H      22.82500000     26.58800000     11.53800000
H      19.77500000     25.56800000     10.01100000
H      20.53700000     25.08800000     12.02200000
H      23.21600000     23.58600000     12.01300000
H      20.15030000     24.80670000      8.51930000
H      20.84000000     23.30620000     12.10980000
H      22.65850000     24.73010000     13.25090000
