14
pbedef2svp=-303.21432685615
N      23.85300000     36.43200000     17.78100000
C      22.82400000     34.51400000     17.78200000
C      23.97800000     35.12100000     18.12600000
N      23.14100000     29.18700000     19.24100000
C      24.10100000     30.14900000     19.19600000
O      24.19600000     30.94800000     18.28700000
H      24.54200000     37.13900000     17.94000000
H      22.56500000     33.48000000     17.95500000
H      22.96570000     36.57880000     17.34380000
H      22.19620000     35.27230000     17.29120000
H      24.88150000     34.71460000     18.60410000
H      23.12400000     28.54900000     20.01100000
H      22.45120000     29.10210000     18.52200000
H      24.77440000     30.16420000     20.06570000
