14
pbedef2svp=-249.16140083006
N      26.33500000     27.77000000      3.25800000
C      26.85000000     29.02100000      3.89800000
O      29.80900000     29.39500000      5.54500000
C      31.67700000     30.27500000      6.63900000
C      31.02200000     29.28800000      5.66500000
H      25.55800000     27.80400000      2.63000000
H      27.91400000     28.87800000      4.13600000
H      26.77990000     26.89940000      3.46810000
H      26.30800000     29.18870000      4.84040000
H      26.76460000     29.84380000      3.17300000
H      32.72700000     30.46400000      6.36900000
H      31.07410000     31.19490000      6.65950000
H      31.59430000     29.85120000      7.65070000
H      31.70340000     28.55290000      5.21190000
