12
pbedef2svp=-193.92060208729
C      29.47200000     35.18100000     23.49800000
C      29.82100000     35.95700000     24.76500000
C      34.23900000     35.35300000     24.97900000
O      33.70700000     36.19700000     25.72800000
H      29.51300000     34.11600000     23.77100000
H      29.05300000     35.77400000     25.53100000
H      30.80000000     35.62400000     25.14100000
H      29.86200000     37.03200000     24.53700000
H      30.20040000     35.31700000     22.68500000
H      28.43580000     35.37980000     23.18710000
H      34.17030000     35.43990000     23.88460000
H      34.83270000     34.52050000     25.38450000
