8
pbedef2svp=-79.63539483544 b3lypdef2svp=-79.70059076625 b3lypvdz=-79.758309335
C      34.14500000     35.47200000     23.48100000
C      35.11400000     36.56400000     22.90700000
H      34.41100000     34.50500000     23.02800000
H      34.52600000     37.42200000     22.55000000
H      35.80200000     36.89500000     23.69900000
H      33.11810000     35.73870000     23.19050000
H      34.21370000     35.38510000     24.57540000
H      35.69410000     36.14600000     22.07110000
