15
pbedef2svp=-233.1627243761
C      37.15600000     35.98500000     11.68800000
C      38.29000000     35.81400000     12.69800000
C      36.73100000     30.57000000     12.64500000
C      38.14800000     30.98100000     13.06900000
O      38.54400000     32.15000000     12.85600000
H      37.25300000     35.21500000     10.90800000
H      36.19400000     35.86100000     12.20700000
H      38.04100000     34.96600000     13.35300000
H      38.35600000     36.73400000     13.29800000
H      37.18200000     36.97790000     11.21530000
H      39.27740000     35.62380000     12.25200000
H      36.42300000     31.20600000     11.80200000
H      36.79070000     29.52500000     12.30690000
H      36.01010000     30.71520000     13.46310000
H      38.76560000     30.24910000     13.61020000
