15
pbedef2svp=-233.15542395583
C      38.61500000     32.80100000      8.32000000
C      37.22000000     32.82200000      8.82700000
C      37.47100000     27.39100000     10.66800000
C      37.44100000     28.88200000     11.05200000
O      38.02000000     29.77200000     10.38200000
H      38.67800000     33.59500000      7.56100000
H      38.75200000     31.82100000      7.83900000
H      36.84100000     31.79300000      8.91200000
H      37.19200000     33.30600000      9.81400000
H      39.48140000     32.94120000      8.98310000
H      36.59760000     33.38850000      8.11870000
H      38.32600000     27.22700000      9.99500000
H      37.59160000     26.75970000     11.56070000
H      36.54750000     27.15040000     10.12100000
H      36.92150000     29.11950000     11.99210000
