14
pbedef2svp=-303.26729289929 b3lypdef2svp=-303.45789756447 b3lypvdz=-303.6927080194
N      34.00700000     23.74500000     13.25000000
C      33.53300000     25.09700000     12.97800000
C      34.44100000     26.09900000     13.68400000
O      34.88300000     27.09000000     13.09300000
N      34.73400000     25.82200000     14.94900000
C      35.59600000     26.71500000     15.73600000
H      33.39700000     23.08600000     13.69000000
H      33.61300000     25.28200000     11.89700000
H      34.36300000     24.99500000     15.37200000
H      35.14500000     27.71800000     15.76300000
H      34.93590000     23.47110000     13.00100000
H      32.47480000     25.21190000     13.25530000
H      36.59410000     26.79530000     15.28070000
H      35.68160000     26.34670000     16.76900000
