19
pbedef2svp=-343.62273777083
N      26.58500000     20.06300000     13.37800000
C      25.59400000     21.10900000     13.07200000
C      26.08400000     21.88800000     11.83300000
C      26.54100000     18.73200000      9.25100000
O      26.33300000     18.53600000     10.45700000
N      26.55900000     20.22000000      7.28800000
C      25.82900000     19.82500000      8.49400000
H      27.36400000     19.94300000     12.76300000
H      25.51600000     21.80500000     13.92000000
H      26.14900000     21.16800000     11.00400000
H      25.31800000     22.64300000     11.60300000
H      26.50680000     19.46850000     14.17830000
H      24.61890000     20.62400000     12.91710000
H      27.04990000     22.41200000     11.88270000
H      25.66900000     20.69300000      9.15000000
H      27.22310000     18.08900000      8.67540000
H      27.51430000     20.51490000      7.30920000
H      25.98970000     20.14450000      6.46940000
H      24.86060000     19.47400000      8.10810000
