10
pbedef2svp=-192.69172578353
C      25.28800000     34.60900000      7.49900000
C      24.14700000     33.96600000      7.03800000
O      23.57900000     31.32100000      9.55400000
C      22.50400000     31.22800000     10.13600000
H      23.51900000     33.41800000      7.72500000
H      25.58500000     34.52800000      8.55500000
H      25.94760000     35.18220000      6.83090000
H      23.88440000     34.01700000      5.97100000
H      21.73270000     30.53490000      9.76920000
H      22.28250000     31.77120000     11.06650000
