13
pbedef2svp=-323.08981699001
C      40.44900000     32.27800000     17.94500000
O      39.93600000     31.33600000     17.31500000
O      42.77000000     27.65500000     15.90600000
N      43.89800000     29.25200000     17.05000000
C      42.44500000     29.84800000     15.18200000
C      43.09000000     28.82800000     16.09500000
H      40.28750000     33.31930000     17.62930000
H      41.06180000     32.11820000     18.84440000
H      44.30200000     28.59800000     17.69000000
H      44.10600000     30.22700000     17.13300000
H      43.02100000     29.92200000     14.24800000
H      42.42600000     30.82900000     15.68000000
H      41.41650000     29.52930000     14.95700000
