16
pbedef2svp=-159.27779677911 b3lypdef2svp=-159.4072498531 b3lypvdz=-159.52244122316
C      26.26600000     25.41300000      2.84200000
C      25.11200000     24.88000000      3.64900000
C      21.65600000     26.84700000      5.24000000
C      21.63100000     26.64200000      3.73100000
H      25.88000000     25.74300000      1.86700000
H      24.23300000     25.51000000      3.45100000
H      24.90700000     23.85100000      3.31900000
H      27.06770000     24.67930000      2.67180000
H      26.72570000     26.28420000      3.33160000
H      25.28820000     24.86540000      4.73470000
H      22.70900000     26.81500000      5.55600000
H      22.06200000     27.53200000      3.24900000
H      22.24200000     25.76100000      3.48700000
H      21.09940000     26.09800000      5.82240000
H      21.27490000     27.85040000      5.48060000
H      20.61700000     26.48570000      3.33430000
