15
pbedef2svp=-287.1978518432 b3lypdef2svp=-287.38417168607 b3lypvdz=-287.60698531704
C      30.95500000     35.21100000      8.45900000
O      30.02500000     34.61800000      9.04000000
C      32.99500000     35.88300000      9.93400000
C      33.10900000     36.38100000     11.43500000
N      30.79500000     37.01500000     10.09500000
C      31.72000000     36.28900000      9.17600000
H      33.82000000     36.38500000      9.40700000
H      34.05800000     36.03000000     11.86700000
H      33.08000000     37.48000000     11.46000000
H      32.26900000     35.97900000     12.02000000
H      30.42700000     36.59700000     10.92600000
H      32.03600000     37.01200000      8.41000000
H      31.19690000     35.02270000      7.40260000
H      33.21760000     34.80790000      9.86670000
H      30.56920000     37.94970000      9.82040000
