15
pbedef2svp=-233.13881559272
C      37.44100000     28.88200000     11.05200000
O      38.02000000     29.77200000     10.38200000
C      36.35100000     33.61300000      7.83800000
C      38.61500000     32.80100000      8.32000000
C      37.22000000     32.82200000      8.82700000
H      37.46240000     27.81700000     10.77770000
H      36.92150000     29.11950000     11.99210000
H      35.32500000     33.67300000      8.23000000
H      36.76200000     34.62700000      7.73100000
H      38.67800000     33.59500000      7.56100000
H      38.75200000     31.82100000      7.83900000
H      36.84100000     31.79300000      8.91200000
H      37.19200000     33.30600000      9.81400000
H      36.33000000     33.12780000      6.85100000
H      39.48140000     32.94120000      8.98310000
