14
pbedef2svp=-249.21497287755
C      27.29900000     17.05500000     13.53300000
C      28.23600000     15.86400000     13.55800000
O      29.93000000     16.47700000     10.60600000
N      29.59900000     18.59900000      9.82800000
C      29.25800000     17.31800000      9.98400000
H      27.28300000     17.48700000     12.52200000
H      27.93200000     15.14100000     12.78700000
H      29.26400000     16.20200000     13.35900000
H      28.19300000     15.38400000     14.54700000
H      27.49310000     17.85740000     14.25990000
H      26.28680000     16.72790000     13.81300000
H      29.07000000     19.20900000      9.23800000
H      30.40390000     18.92440000     10.32420000
H      28.38130000     16.96630000      9.42040000
