11
pbedef2svp=-118.86718641102 b3lypdef2svp=-118.96034249086 b3lypvdz=-119.04727404951
C      30.92500000     34.30400000     17.75300000
C      32.34500000     34.18300000     18.35800000
C      32.55500000     32.78300000     18.87000000
H      30.79800000     33.52100000     16.99100000
H      30.82500000     35.29300000     17.28200000
H      32.46000000     34.90800000     19.17700000
H      33.56400000     32.69700000     19.30000000
H      31.80600000     32.56000000     19.64400000
H      32.44800000     32.06900000     18.04000000
H      30.13450000     34.19220000     18.50970000
H      33.07160000     34.40330000     17.56200000
