17
pbedef2svp=-342.48386115121 b3lypdef2svp=-342.70058700064 b3lypvdz=-342.96489583701
N      39.65500000     34.33500000     11.28500000
N      40.11700000     31.75000000      9.98800000
C      39.80800000     32.99400000      9.23300000
C      39.83700000     34.27100000      9.99500000
O      40.16400000     35.32300000      9.34500000
C      38.61500000     32.80100000      8.32000000
C      37.22000000     32.82200000      8.82700000
H      39.48700000     33.47600000     11.76900000
H      39.41000000     31.24600000     10.48500000
H      40.65200000     33.09000000      8.53400000
H      38.67800000     33.59500000      7.56100000
H      38.75200000     31.82100000      7.83900000
H      36.84100000     31.79300000      8.91200000
H      37.19200000     33.30600000      9.81400000
H      39.66950000     35.17360000     11.82950000
H      41.06890000     31.44410000      9.97240000
H      36.59760000     33.38850000      8.11870000
