18
pbedef2svp=-326.49044352825 b3lypdef2svp=-326.70423035299 b3lypvdz=-326.9546375819
C      28.76200000     29.57300000     19.90600000
C      27.33100000     29.31700000     20.36400000
O      27.10100000     28.34600000     21.09700000
N      26.43600000     30.23200000     20.00400000
C      25.03400000     30.17000000     20.40100000
C      24.63900000     31.42600000     21.28600000
C      25.64600000     31.67000000     22.42100000
H      28.81600000     30.60900000     19.54100000
H      26.73800000     30.99700000     19.43500000
H      24.85900000     29.26400000     21.00000000
H      24.67100000     32.30400000     20.62400000
H      26.63000000     31.89000000     21.98200000
H      25.30900000     32.53200000     23.01600000
H      29.45240000     29.47150000     20.75640000
H      29.04300000     28.90990000     19.07460000
H      24.36060000     30.15480000     19.53130000
H      23.60990000     31.34340000     21.66570000
H      25.73940000     30.79640000     23.08290000
