21
pbedef2svp=-307.78915667933 b3lypdef2svp=-308.00207515777 b3lypvdz=-308.2344065718
N      34.73400000     25.82200000     14.94900000
C      35.59600000     26.71500000     15.73600000
C      35.71500000     26.20300000     17.17200000
C      34.34300000     26.44500000     17.89800000
C      34.50900000     26.07700000     19.36000000
C      33.20600000     26.31100000     20.12200000
N      33.45500000     25.91000000     21.54600000
H      34.36300000     24.99500000     15.37200000
H      35.14500000     27.71800000     15.76300000
H      35.94800000     25.12800000     17.16500000
H      36.51400000     26.74800000     17.69600000
H      34.05700000     27.50400000     17.81100000
H      33.56400000     25.81600000     17.44200000
H      34.78800000     25.01600000     19.43700000
H      35.30300000     26.69700000     19.80200000
H      32.92400000     27.37300000     20.07200000
H      32.40100000     25.69700000     19.69200000
H      32.62200000     26.04800000     22.08200000
H      33.71700000     24.94500000     21.58000000
H      34.51330000     26.03060000     13.99620000
H      36.59410000     26.79530000     15.28070000
