17
pbedef2svp=-288.33000029053
C      26.48200000     19.28000000     14.43200000
O      25.60900000     19.38800000     15.28700000
N      22.99700000     17.97800000     14.36600000
C      22.41800000     17.63800000     15.69300000
C      24.27200000     21.54400000     17.64400000
C      25.05200000     21.28500000     18.77600000
H      27.25840000     18.50640000     14.52510000
H      26.56800000     19.93400000     13.55170000
H      23.99100000     18.00600000     14.25900000
H      21.81600000     16.72700000     15.56300000
H      22.41550000     18.17940000     13.57780000
H      21.73010000     18.42720000     16.03050000
H      23.17780000     17.41440000     16.45640000
H      24.69800000     21.42900000     16.65800000
H      26.07000000     20.94100000     18.66600000
H      23.22570000     21.86490000     17.75520000
H      24.62430000     21.43290000     19.77860000
