7
pbedef2svp=-95.63915543467 b3lypdef2svp=-95.70867447789 b3lypvdz=-95.7799673112
N      29.38000000     22.05700000      6.23200000
C      28.46800000     20.94000000      5.98000000
H      30.12100000     21.92300000      6.89000000
H      27.69800000     21.22000000      5.24600000
H      29.30320000     22.94690000      5.78250000
H      27.99890000     20.70070000      6.94570000
H      29.00550000     20.04320000      5.63800000
