20
pbedef2svp=-290.50698761248 b3lypdef2svp=-290.71490401033 b3lypvdz=-290.93466111105
C      24.51700000     21.47000000     20.03000000
C      22.94500000     21.95100000     17.78500000
C      24.27200000     21.54400000     17.64400000
C      25.05200000     21.28500000     18.77600000
C      26.92600000     18.19100000     18.89200000
N      29.34000000     17.59400000     19.07600000
C      28.10800000     17.43900000     18.27600000
H      24.69800000     21.42900000     16.65800000
H      26.07000000     20.94100000     18.66600000
H      23.48040000     21.81500000     20.15790000
H      25.09870000     21.33630000     20.95400000
H      22.31860000     22.17170000     16.90810000
H      22.54370000     22.11370000     18.79620000
H      27.14900000     19.26800000     18.86300000
H      26.03200000     17.98500000     18.28500000
H      29.44000000     18.40200000     19.65700000
H      27.85100000     16.37300000     18.19200000
H      26.70840000     17.91140000     19.93340000
H      30.07790000     16.91940000     19.05720000
H      28.30110000     17.84390000     17.27160000
