11
pbedef2svp=-118.86597058014 b3lypdef2svp=-118.95908386115 b3lypvdz=-119.0458585337
C      29.21300000     19.69700000      5.50600000
C      29.72800000     19.75500000      4.06000000
C      28.46800000     20.94000000      5.98000000
H      30.07700000     19.54500000      6.16900000
H      28.53000000     18.83800000      5.59000000
H      30.51000000     20.52800000      4.02300000
H      30.17100000     18.77400000      3.83200000
H      27.69800000     21.22000000      5.24600000
H      29.00780000     19.98130000      3.25990000
H      29.15330000     21.77930000      6.16940000
H      27.99890000     20.70070000      6.94570000
