14
pbedef2svp=-195.1270248006
C      25.88400000     39.13900000     14.61500000
C      26.21900000     37.68400000     14.30700000
C      28.11300000     39.04900000     10.01500000
O      27.28000000     39.72200000     10.99600000
H      26.30200000     39.41600000     15.59400000
H      26.30900000     39.79000000     13.83700000
H      25.70800000     37.42000000     13.36900000
H      25.81700000     37.07300000     15.12800000
H      24.78990000     39.25080000     14.63420000
H      27.27980000     37.41810000     14.18880000
H      28.15100000     39.62800000      9.08100000
H      26.38900000     39.77600000     10.67200000
H      29.11730000     39.02860000     10.46340000
H      27.73750000     38.03760000      9.80040000
