11
pbedef2svp=-321.90683734197 b3lypdef2svp=-322.09877882934 b3lypvdz=-322.355577811
N      30.99100000     42.57100000     17.99800000
C      31.42200000     43.94000000     17.55300000
C      30.75500000     44.35100000     16.27700000
O      31.20700000     45.26800000     15.56600000
C      30.07500000     42.53800000     18.98400000
O      29.58600000     43.57000000     19.48300000
H      31.36100000     41.73700000     17.58800000
H      31.15100000     44.66200000     18.33700000
H      32.51930000     43.92450000     17.47690000
H      29.87810000     43.77600000     15.94460000
H      29.73530000     41.55230000     19.33460000
