14
pbedef2svp=-307.01216287018
C      26.88200000     31.42800000      7.86200000
O      27.90600000     31.71100000      7.26400000
O      29.80900000     29.39500000      5.54500000
C      31.56200000     29.68600000      8.04500000
C      31.67700000     30.27500000      6.63900000
C      31.02200000     29.28800000      5.66500000
H      26.42530000     30.46100000      7.60440000
H      26.32170000     31.98910000      8.62440000
H      30.84400000     30.34400000      8.55700000
H      31.10600000     28.69700000      7.88900000
H      32.72700000     30.46400000      6.36900000
H      32.34920000     29.50780000      8.79240000
H      31.07410000     31.19490000      6.65950000
H      31.70340000     28.55290000      5.21190000
