14
pbedef2svp=-361.14273863323 b3lypdef2svp=-361.36313572815 b3lypvdz=-361.64890368106
N      34.00700000     23.74500000     13.25000000
C      33.53300000     25.09700000     12.97800000
C      34.44100000     26.09900000     13.68400000
O      34.88300000     27.09000000     13.09300000
C      35.59000000     21.94500000     13.30200000
C      35.23800000     23.38200000     12.92000000
O      36.06600000     24.10900000     12.33300000
H      33.39700000     23.08600000     13.69000000
H      33.61300000     25.28200000     11.89700000
H      36.68700000     21.87000000     13.28900000
H      32.47480000     25.21190000     13.25530000
H      34.68380000     25.86950000     14.73200000
H      35.25210000     21.70450000     14.32080000
H      35.21250000     21.23590000     12.55060000
