9
pbedef2svp=-208.75424178094 b3lypdef2svp=-208.88542665438 b3lypvdz=-209.05006232784
C      41.76500000     34.82900000     30.94400000
O      42.94500000     34.99400000     30.58300000
N      40.29400000     34.41200000     29.04500000
C      40.87300000     33.80200000     30.25300000
H      40.83900000     34.43500000     28.20700000
H      40.05800000     33.53600000     30.94300000
H      41.26790000     35.41060000     31.73440000
H      39.37410000     34.80400000     29.03440000
H      41.43310000     32.88560000     30.01540000
