7
pbedef2svp=-95.63813171075 b3lypdef2svp=-95.70759537947 b3lypvdz=-95.77901915813
N      37.19700000     35.39700000     27.51300000
C      38.66800000     35.50200000     27.68000000
H      36.61300000     36.17900000     27.72900000
H      39.13700000     34.87600000     26.90700000
H      36.78980000     34.54470000     27.18480000
H      38.96280000     35.08940000     28.65620000
H      38.96580000     36.54220000     27.48190000
