14
pbedef2svp=-249.16368198572
N      22.24100000     31.87300000     11.24100000
C      23.21200000     32.76200000     11.89100000
C      26.77200000     33.43600000      9.19700000
C      27.15100000     33.36200000     10.65000000
O      26.35000000     32.77800000     11.39500000
H      21.34100000     31.75600000     11.66200000
H      24.14700000     32.76300000     11.31200000
H      22.44230000     31.37920000     10.39500000
H      23.42580000     32.37470000     12.89810000
H      22.85770000     33.80140000     11.95590000
H      27.66100000     33.67200000      8.59400000
H      26.36600000     32.46180000      8.88710000
H      25.99930000     34.19790000      9.01690000
H      28.06890000     33.84290000     11.01910000
