13
pbedef2svp=-269.00850293793
O      33.77800000     18.73900000     14.51600000
C      32.49200000     18.19300000     14.99500000
C      35.54100000     21.41800000     10.87100000
O      36.77200000     21.62300000     10.67600000
C      35.06400000     20.95700000     12.25500000
H      34.49400000     18.25400000     14.90900000
H      32.40300000     18.31600000     16.08500000
H      31.72450000     18.80410000     14.49760000
H      32.39220000     17.12890000     14.73480000
H      35.45300000     19.95000000     12.46600000
H      33.96400000     20.93800000     12.28200000
H      34.78600000     21.56440000     10.08450000
H      35.44150000     21.66610000     13.00640000
