14
pbedef2svp=-361.13041979603 b3lypdef2svp=-361.34989083591 b3lypvdz=-361.63559880315
N      39.65500000     34.33500000     11.28500000
C      39.67600000     35.54700000     12.07200000
C      40.67500000     35.52700000     13.20000000
O      40.81400000     36.52800000     13.91100000
C      38.29000000     35.81400000     12.69800000
C      39.83700000     34.27100000      9.99500000
O      40.16400000     35.32300000      9.34500000
H      39.48700000     33.47600000     11.76900000
H      39.91600000     36.39600000     11.41500000
H      38.04100000     34.96600000     13.35300000
H      38.35600000     36.73400000     13.29800000
H      41.20850000     34.58460000     13.39280000
H      37.47370000     35.93710000     11.97100000
H      39.81560000     33.32660000      9.43140000
