9
pbedef2svp=-208.79808825382 b3lypdef2svp=-208.92864913297 b3lypvdz=-209.0915163077
O      32.57600000     25.80200000      5.46100000
C      30.28800000     24.24500000      6.19300000
N      30.31000000     25.45800000      5.38400000
C      31.44000000     26.07900000      5.08000000
H      31.28700000     23.78400000      6.19600000
H      29.44600000     25.83300000      5.04800000
H      29.56540000     23.51590000      5.79770000
H      30.01650000     24.48820000      7.23090000
H      31.28000000     26.99650000      4.49470000
