9
pbedef2svp=-208.75458492693 b3lypdef2svp=-208.88643936347 b3lypvdz=-209.05123685202
N      30.13200000     40.06900000     18.64200000
C      29.60700000     41.18000000     19.46700000
C      30.07500000     42.53800000     18.98400000
O      29.58600000     43.57000000     19.48300000
H      30.85500000     39.48300000     19.00900000
H      28.51100000     41.16800000     19.37000000
H      29.77630000     39.89420000     17.72390000
H      29.83110000     40.97170000     20.52360000
H      30.82350000     42.56500000     18.17830000
