17
pbedef2svp=-342.49316029751 b3lypdef2svp=-342.71029304978 b3lypvdz=-342.97451481781
C      29.27900000     23.22700000      5.64100000
O      28.47800000     23.52200000      4.72500000
C      29.90300000     24.59000000      7.66500000
N      29.38000000     22.05700000      6.23200000
C      28.46800000     20.94000000      5.98000000
N      30.31000000     25.45800000      5.38400000
C      30.28800000     24.24500000      6.19300000
H      29.89100000     23.63600000      8.21200000
H      30.12100000     21.92300000      6.89000000
H      27.69800000     21.22000000      5.24600000
H      29.44600000     25.83300000      5.04800000
H      31.28700000     23.78400000      6.19600000
H      30.60400000     25.25220000      8.19420000
H      28.87570000     24.98230000      7.69380000
H      27.99890000     20.70070000      6.94570000
H      29.00550000     20.04320000      5.63800000
H      31.16300000     25.92680000      5.15450000
