13
pbedef2svp=-174.09703226552 b3lypdef2svp=-174.22210064774 b3lypvdz=-174.35152639839
C      29.18300000     39.72200000     21.58100000
N      30.13200000     40.06900000     18.64200000
C      29.60700000     41.18000000     19.46700000
C      29.91900000     40.89000000     20.93800000
H      29.62800000     38.78600000     21.21200000
H      30.85500000     39.48300000     19.00900000
H      28.51100000     41.16800000     19.37000000
H      30.99700000     40.68600000     21.01500000
H      29.67500000     41.79500000     21.51400000
H      29.27350000     39.74230000     22.67710000
H      28.11290000     39.72130000     21.32630000
H      29.77630000     39.89420000     17.72390000
H      29.94670000     42.16570000     19.11640000
