14
pbedef2svp=-361.14343122296 b3lypdef2svp=-361.36412379566 b3lypvdz=-361.6498444794
C      39.06300000     28.06300000     23.69500000
C      38.36500000     29.33500000     24.15900000
O      37.68400000     29.39000000     25.22100000
N      38.41900000     30.37300000     23.34100000
C      37.73800000     31.63700000     23.71200000
C      36.33400000     31.74200000     23.08700000
O      35.57400000     32.61800000     23.48300000
H      38.35200000     27.23900000     23.85600000
H      38.91700000     30.30600000     22.47600000
H      37.65300000     31.71100000     24.80600000
H      39.29290000     28.08300000     22.61950000
H      39.97620000     27.79770000     24.24780000
H      38.30060000     32.50360000     23.33460000
H      36.05440000     31.00370000     22.32100000
