14
pbedef2svp=-249.15790215378
N      27.34000000     24.43000000      2.61400000
C      26.26600000     25.41300000      2.84200000
C      29.27900000     23.22700000      5.64100000
O      28.47800000     23.52200000      4.72500000
C      30.28800000     24.24500000      6.19300000
H      26.96100000     23.61900000      2.16800000
H      28.04300000     24.83400000      2.02900000
H      25.88000000     25.74300000      1.86700000
H      26.72570000     26.28420000      3.33160000
H      25.42290000     25.02360000      3.43160000
H      31.28700000     23.78400000      6.19600000
H      29.36350000     22.24810000      6.13550000
H      30.30460000     25.16000000      5.58270000
H      30.01650000     24.48820000      7.23090000
