12
pbedef2svp=-248.02447193811 b3lypdef2svp=-248.18252381314 b3lypvdz=-248.3750888076
C      21.63700000     28.92300000     10.35300000
C      21.46600000     30.95300000      7.26100000
O      21.06600000     32.11200000      7.53300000
N      21.67400000     30.03400000      8.19100000
C      21.41900000     30.25300000      9.62000000
H      22.57800000     28.46500000     10.01500000
H      21.68500000     29.10200000     11.43700000
H      22.02400000     29.14200000      7.90400000
H      20.41000000     30.65000000      9.80700000
H      20.79700000     28.24970000     10.12700000
H      21.78930000     30.66710000      6.24920000
H      22.19030000     30.94610000      9.98680000
