7
pbedef2svp=-95.63896594403 b3lypdef2svp=-95.70849384622 b3lypvdz=-95.77987174475
N      26.58500000     20.06300000     13.37800000
C      25.59400000     21.10900000     13.07200000
H      27.36400000     19.94300000     12.76300000
H      25.51600000     21.80500000     13.92000000
H      26.50680000     19.46850000     14.17830000
H      24.61890000     20.62400000     12.91710000
H      25.94320000     21.66420000     12.18890000
