15
pbedef2svp=-378.3717670331
O      29.80900000     29.39500000      5.54500000
N      31.83400000     28.41200000      5.12500000
C      31.02200000     29.28800000      5.66500000
N      26.33500000     27.77000000      3.25800000
C      26.85000000     29.02100000      3.89800000
C      26.91300000     26.63900000      3.53100000
O      27.88600000     26.46300000      4.26300000
H      32.82200000     28.45600000      5.27400000
H      31.42440000     27.69750000      4.55790000
H      31.49180000     29.99600000      6.36360000
H      25.55800000     27.80400000      2.63000000
H      27.91400000     28.87800000      4.13600000
H      26.30800000     29.18870000      4.84040000
H      26.76460000     29.84380000      3.17300000
H      26.45330000     25.76780000      3.04140000
