12
pbedef2svp=-193.9530515439 b3lypdef2svp=-194.08650161406 b3lypvdz=-194.23606901717
O      33.77800000     18.73900000     14.51600000
C      32.35200000     16.70000000     14.63000000
C      31.39800000     19.06400000     14.28600000
C      32.49200000     18.19300000     14.99500000
H      34.49400000     18.25400000     14.90900000
H      33.13400000     16.12100000     15.14400000
H      31.36200000     16.33700000     14.94300000
H      32.46000000     16.57700000     13.54200000
H      30.40500000     18.73500000     14.62700000
H      32.40300000     18.31600000     16.08500000
H      31.48330000     18.96650000     13.19370000
H      31.53670000     20.12320000     14.54850000
