14
pbedef2svp=-249.15567886873 b3lypdef2svp=-249.32526848653 b3lypvdz=-249.51848603041
C      29.94200000     21.10600000     21.24000000
O      29.47000000     20.67700000     20.19000000
C      26.92600000     18.19100000     18.89200000
N      29.34000000     17.59400000     19.07600000
C      28.10800000     17.43900000     18.27600000
H      29.26390000     21.50910000     22.00660000
H      31.02640000     21.09260000     21.42400000
H      27.14900000     19.26800000     18.86300000
H      26.03200000     17.98500000     18.28500000
H      29.44000000     18.40200000     19.65700000
H      27.85100000     16.37300000     18.19200000
H      26.70840000     17.91140000     19.93340000
H      30.07790000     16.91940000     19.05720000
H      28.30110000     17.84390000     17.27160000
