15
pbedef2svp=-378.33443746571 b3lypdef2svp=-378.56827916683 b3lypvdz=-378.86695974613
N      26.58500000     20.06300000     13.37800000
C      26.48200000     19.28000000     14.43200000
O      25.60900000     19.38800000     15.28700000
N      29.59900000     18.59900000      9.82800000
C      30.79600000     19.08300000     10.56600000
C      30.49100000     19.16200000     12.04000000
O      29.36700000     19.52300000     12.44100000
H      27.36400000     19.94300000     12.76300000
H      25.91220000     20.77310000     13.17030000
H      27.25840000     18.50640000     14.52510000
H      29.07000000     19.20900000      9.23800000
H      31.64900000     18.41000000     10.39300000
H      29.34350000     17.63930000      9.94490000
H      31.04840000     20.08980000     10.20180000
H      31.33860000     18.97400000     12.71540000
