14
pbedef2svp=-158.09375240488 b3lypdef2svp=-158.21428243753 b3lypvdz=-158.33047434323
C      30.41600000     28.91200000     17.98000000
C      30.73800000     27.69300000     17.12200000
C      30.20500000     30.16800000     17.12900000
C      29.15100000     28.65500000     18.75500000
H      31.24500000     29.08800000     18.68100000
H      31.66200000     27.87700000     16.55400000
H      30.87500000     26.81500000     17.77000000
H      29.90900000     27.50700000     16.42300000
H      31.11700000     30.37800000     16.55200000
H      29.36400000     30.00600000     16.43900000
H      29.98200000     31.02200000     17.78500000
H      29.23500000     27.64100000     19.17300000
H      28.32300000     28.68600000     18.03100000
H      28.87000000     29.31810000     19.58640000
