7
pbedef2svp=-153.51785919339 b3lypdef2svp=-153.61733305728 b3lypvdz=-153.73924125986
O      43.66600000     28.26200000      9.53900000
C      41.39800000     28.78000000      9.81000000
C      42.62600000     28.55700000      8.92800000
H      41.23000000     27.91100000     10.46300000
H      40.50500000     28.95100000      9.19100000
H      41.62820000     29.67330000     10.40920000
H      42.45250000     28.78280000      7.86550000
