9
pbedef2svp=-208.8105348879 b3lypdef2svp=-208.94079140349 b3lypvdz=-209.10435399654
O      27.50700000     32.58700000     18.95800000
C      26.17900000     34.12700000     17.65000000
C      27.47500000     33.65100000     18.30400000
N      28.52500000     34.44700000     18.18900000
H      26.36900000     34.95900000     16.95600000
H      28.44200000     35.28300000     17.64600000
H      25.76500000     33.25010000     17.13070000
H      25.49380000     34.43800000     18.45240000
H      29.39950000     34.24000000     18.62760000
