9
pbedef2svp=-208.75304448806 b3lypdef2svp=-208.88411601911 b3lypvdz=-209.04917856052
C      38.36500000     29.33500000     24.15900000
O      37.68400000     29.39000000     25.22100000
N      39.37400000     28.09000000     22.24000000
C      39.06300000     28.06300000     23.69500000
H      40.32700000     28.14100000     21.94300000
H      38.35200000     27.23900000     23.85600000
H      38.40990000     30.19820000     23.47870000
H      38.64700000     28.05800000     21.55420000
H      39.97620000     27.79770000     24.24780000
