9
pbedef2svp=-208.75149610277 b3lypdef2svp=-208.88314704057 b3lypvdz=-209.04771514555
N      40.64200000     33.91600000     16.11200000
C      40.22600000     33.71600000     17.50900000
C      40.44900000     32.27800000     17.94500000
O      39.93600000     31.33600000     17.31500000
H      39.96500000     33.93300000     15.37700000
H      40.79400000     34.38800000     18.16900000
H      41.61440000     34.03500000     15.91110000
H      39.16150000     33.98680000     17.56870000
H      41.06180000     32.11820000     18.84440000
