20
pbedef2svp=-273.56372008566
C      38.69300000     34.10600000     17.59500000
C      38.14600000     33.93200000     19.02700000
C      36.33400000     31.74200000     23.08700000
O      35.57400000     32.61800000     23.48300000
C      35.92600000     35.97900000     21.73700000
C      35.00300000     35.08400000     20.92000000
H      38.14400000     33.41300000     16.94100000
H      37.08200000     34.21100000     19.05000000
H      38.25700000     32.88200000     19.33700000
H      38.70900000     34.57900000     19.71600000
H      39.75750000     33.83520000     17.53530000
H      38.53620000     35.12310000     17.20650000
H      37.33660000     31.66700000     23.53330000
H      36.05440000     31.00370000     22.32100000
H      36.73600000     35.36100000     22.15200000
H      35.56200000     34.65300000     20.07600000
H      34.62000000     34.27400000     21.55700000
H      34.16100000     35.67900000     20.53700000
H      35.34590000     36.39700000     22.57290000
H      36.36930000     36.78820000     21.13810000
