21
pbedef2svp=-311.56624960852
C      24.24100000     20.43600000     12.85700000
O      23.26400000     20.95100000     13.32900000
C      23.37600000     25.64500000     11.40900000
C      22.65000000     24.51600000     12.17200000
C      22.08500000     22.25400000     16.58100000
C      22.94500000     21.95100000     17.78500000
C      24.27200000     21.54400000     17.64400000
H      25.21610000     20.92100000     13.01190000
H      24.24020000     19.45520000     12.35890000
H      24.39600000     25.75900000     11.80600000
H      23.42500000     25.39200000     10.34000000
H      22.82500000     26.58800000     11.53800000
H      23.21600000     23.58600000     12.01300000
H      21.61880000     24.33800000     11.83300000
H      22.65850000     24.73010000     13.25090000
H      22.74300000     22.39600000     15.71100000
H      21.52900000     23.18300000     16.77600000
H      24.69800000     21.42900000     16.65800000
H      21.36190000     21.45970000     16.34380000
H      22.54370000     22.11370000     18.79620000
H      24.88530000     21.34030000     18.53410000
