14
pbedef2svp=-303.26753857576 b3lypdef2svp=-303.45687971955 b3lypvdz=-303.69221659277
N      30.12400000     34.53300000     21.19100000
C      30.47900000     35.36900000     22.37400000
C      31.90100000     34.91000000     22.72800000
O      32.19000000     33.69600000     22.63500000
C      29.47200000     35.18100000     23.49800000
N      32.76300000     35.83100000     23.09000000
H      29.93800000     33.55900000     21.31800000
H      30.50500000     36.43000000     22.08400000
H      29.51300000     34.11600000     23.77100000
H      32.48200000     36.79100000     23.10200000
H      30.06830000     34.92650000     20.27340000
H      29.72350000     35.74030000     24.41120000
H      28.43580000     35.37980000     23.18710000
H      33.69650000     35.58850000     23.35410000
