14
pbedef2svp=-158.09431428321 b3lypdef2svp=-158.21495877896 b3lypvdz=-158.3310250624
C      27.39300000     28.44200000     14.22900000
C      24.94200000     28.80700000     13.95200000
C      26.31000000     30.59400000     14.96700000
C      26.29000000     29.48000000     13.96000000
H      27.34200000     27.64700000     13.47100000
H      28.37700000     28.93200000     14.18100000
H      27.24900000     28.00500000     15.22800000
H      24.94200000     27.99400000     13.21100000
H      24.73300000     28.39300000     14.95000000
H      24.16700000     29.54200000     13.69000000
H      27.23500000     31.16400000     14.79900000
H      26.34200000     30.12800000     15.96300000
H      26.46700000     29.91100000     12.96300000
H      25.48190000     31.31800000     14.97630000
