11
pbedef2svp=-209.91835916196
C      26.10000000     29.25300000      5.20200000
O      24.86500000     29.02400000      5.33000000
N      20.92400000     25.86200000      6.00600000
C      21.65600000     26.84700000      5.24000000
H      26.64200000     29.08530000      4.25960000
H      26.72220000     29.58780000      6.04510000
H      20.47700000     25.11200000      5.51900000
H      22.70900000     26.81500000      5.55600000
H      20.84740000     25.90110000      7.00230000
H      21.27490000     27.85040000      5.48060000
H      21.63790000     26.69890000      4.15020000
