18
pbedef2svp=-326.48902750137 b3lypdef2svp=-326.70346789552 b3lypvdz=-326.95421987188
C      23.37600000     25.64500000     11.40900000
C      19.06500000     21.35200000     12.99900000
C      19.44200000     22.74500000     12.51000000
O      18.57100000     23.61000000     12.28900000
N      20.71700000     22.96400000     12.26000000
C      21.18400000     24.26300000     11.69000000
C      22.65000000     24.51600000     12.17200000
H      24.39600000     25.75900000     11.80600000
H      23.42500000     25.39200000     10.34000000
H      22.82500000     26.58800000     11.53800000
H      19.16200000     20.67100000     12.14100000
H      21.38500000     22.24600000     12.45600000
H      20.53700000     25.08800000     12.02200000
H      23.21600000     23.58600000     12.01300000
H      19.75590000     21.00360000     13.78080000
H      18.01610000     21.30240000     13.32660000
H      21.13070000     24.15350000     10.59680000
H      22.65850000     24.73010000     13.25090000
