5
pbedef2svp=-40.41359201088 b3lypdef2svp=-40.45042945799 b3lypvdz=-40.47897523539
C      31.74400000     38.87900000     16.29900000
H      32.36600000     38.76400000     17.19900000
H      30.68610000     38.71460000     16.55180000
H      31.73870000     39.91890000     15.94050000
H      32.11290000     38.22830000     15.49250000
