16
pbedef2svp=-159.27719078364 b3lypdef2svp=-159.40638550975 b3lypvdz=-159.52169784965
C      32.99500000     35.88300000      9.93400000
C      33.30600000     34.38100000      9.84000000
C      36.35100000     33.61300000      7.83800000
C      37.22000000     32.82200000      8.82700000
H      33.82000000     36.38500000      9.40700000
H      32.43400000     33.80800000     10.18800000
H      33.52200000     34.12000000      8.79300000
H      32.08300000     36.17340000      9.39180000
H      33.07410000     36.22850000     10.97530000
H      34.17690000     34.13080000     10.46360000
H      35.32500000     33.67300000      8.23000000
H      36.76200000     34.62700000      7.73100000
H      36.84100000     31.79300000      8.91200000
H      37.19200000     33.30600000      9.81400000
H      36.33000000     33.12780000      6.85100000
H      38.25370000     32.80640000      8.45130000
