20
pbedef2svp=-273.56397937472
C      35.71500000     26.20300000     17.17200000
C      34.34300000     26.44500000     17.89800000
C      33.28400000     30.50400000     14.55200000
C      34.22800000     30.63000000     13.31900000
C      36.08300000     30.19400000     17.87500000
O      35.04800000     29.70200000     17.39300000
H      35.94800000     25.12800000     17.16500000
H      36.51400000     26.74800000     17.69600000
H      34.05700000     27.50400000     17.81100000
H      33.56400000     25.81600000     17.44200000
H      35.62940000     26.57130000     16.13900000
H      34.46340000     26.17810000     18.95830000
H      32.24400000     30.40100000     14.20900000
H      33.56500000     29.61800000     15.14000000
H      33.37700000     31.40400000     15.17800000
H      33.94700000     31.51600000     12.73100000
H      34.13500000     29.73000000     12.69300000
H      35.26830000     30.73260000     13.66130000
H      36.03110000     30.68130000     18.85980000
H      37.04120000     30.13710000     17.33770000
