18
pbedef2svp=-326.48525937562 b3lypdef2svp=-326.69904827295 b3lypvdz=-326.94965503713
C      29.27900000     23.22700000      5.64100000
O      28.47800000     23.52200000      4.72500000
C      29.90300000     24.59000000      7.66500000
C      30.86200000     25.49600000      8.38900000
N      29.38000000     22.05700000      6.23200000
C      28.46800000     20.94000000      5.98000000
C      30.28800000     24.24500000      6.19300000
H      29.89100000     23.63600000      8.21200000
H      30.49800000     25.67400000      9.41200000
H      31.85400000     25.02200000      8.43000000
H      30.93500000     26.45400000      7.85400000
H      30.12100000     21.92300000      6.89000000
H      27.69800000     21.22000000      5.24600000
H      31.28700000     23.78400000      6.19600000
H      28.87570000     24.98230000      7.69380000
H      27.99890000     20.70070000      6.94570000
H      29.00550000     20.04320000      5.63800000
H      30.30460000     25.16000000      5.58270000
