16
pbedef2svp=-362.31020384867 b3lypdef2svp=-362.53725192081 b3lypvdz=-362.82332912874
N      30.12400000     34.53300000     21.19100000
C      30.47900000     35.36900000     22.37400000
C      30.05200000     35.04200000     20.00400000
O      30.10500000     36.30500000     19.78800000
C      31.20000000     30.32900000     22.78000000
C      30.21000000     30.50900000     21.65000000
O      29.97800000     31.72600000     21.26900000
H      29.93800000     33.55900000     21.31800000
H      30.50500000     36.43000000     22.08400000
H      31.49760000     35.04020000     22.62760000
H      29.75060000     35.23300000     23.18700000
H      29.86790000     34.38390000     19.14200000
H      31.35500000     29.25000000     22.92500000
H      32.13930000     30.76110000     22.40440000
H      30.94270000     30.76780000     23.75530000
H      29.78370000     29.62250000     21.15760000
