14
pbedef2svp=-249.21006964583
C      30.92500000     34.30400000     17.75300000
C      29.80100000     34.14500000     18.82900000
N      29.69400000     29.43600000     21.05400000
C      30.21000000     30.50900000     21.65000000
O      29.97800000     31.72600000     21.26900000
H      30.79800000     33.52100000     16.99100000
H      30.82500000     35.29300000     17.28200000
H      29.80100000     33.10000000     19.17200000
H      31.93390000     34.21800000     18.18280000
H      28.83900000     34.37270000     18.34650000
H      29.98510000     34.80310000     19.69100000
H      29.93800000     28.52400000     21.38400000
H      29.06640000     29.52830000     20.28090000
H      30.92970000     30.37810000     22.47150000
