7
pbedef2svp=-95.64090387064 b3lypdef2svp=-95.71036125412 b3lypvdz=-95.78149656771
N      39.65500000     34.33500000     11.28500000
C      39.67600000     35.54700000     12.07200000
H      39.48700000     33.47600000     11.76900000
H      39.91600000     36.39600000     11.41500000
H      39.79450000     34.28590000     10.29600000
H      40.40520000     35.53240000     12.89540000
H      38.68860000     35.73720000     12.51800000
