12
pbedef2svp=-516.75906327058 b3lypdef2svp=-516.97223782733 b3lypvdz=-517.18736418214
C      25.11200000     24.88000000      3.64900000
C      25.35300000     24.86000000      5.13400000
S      23.93000000     23.95900000      5.90400000
C      24.44700000     23.98400000      7.62000000
H      24.23300000     25.51000000      3.45100000
H      24.90700000     23.85100000      3.31900000
H      26.29500000     24.33800000      5.35600000
H      25.40300000     25.88800000      5.52200000
H      23.69300000     23.47500000      8.23800000
H      25.41300000     23.46700000      7.71900000
H      24.55300000     25.02600000      7.95600000
H      25.95510000     25.26940000      3.05940000
