8
pbedef2svp=-79.63564092091 b3lypdef2svp=-79.70087583381 b3lypvdz=-79.75853259631
C      35.16100000     34.17400000     26.89600000
C      34.71700000     32.76000000     27.28600000
H      34.63100000     34.92600000     27.50000000
H      33.77000000     32.82600000     27.84100000
H      34.56500000     32.17100000     26.37000000
H      34.98910000     34.33030000     25.82080000
H      36.24860000     34.26190000     27.03500000
H      35.46230000     32.25160000     27.91540000
