15
pbedef2svp=-233.16350985607
C      31.74400000     38.87900000     16.29900000
C      32.26000000     37.96900000     15.17100000
C      30.45900000     40.66600000     12.13000000
O      30.25300000     39.99100000     13.13300000
C      31.19100000     42.01200000     12.33100000
H      32.36600000     38.76400000     17.19900000
H      33.32000000     38.19100000     14.97600000
H      32.15500000     36.91600000     15.47300000
H      31.67400000     38.14900000     14.25800000
H      30.68610000     38.71460000     16.55180000
H      31.73870000     39.91890000     15.94050000
H      31.04300000     42.64100000     11.44100000
H      30.21240000     40.39270000     11.09340000
H      30.71680000     42.47330000     13.20980000
H      32.26270000     41.79850000     12.45690000
