16
pbedef2svp=-159.27635871902
C      28.76200000     29.57300000     19.90600000
C      29.15100000     28.65500000     18.75500000
C      26.82600000     24.52100000     21.01200000
C      27.04300000     24.99200000     19.57100000
H      28.81600000     30.60900000     19.54100000
H      29.23500000     27.64100000     19.17300000
H      28.32300000     28.68600000     18.03100000
H      29.45240000     29.47150000     20.75640000
H      27.72920000     29.38820000     20.23650000
H      30.07520000     28.84280000     18.18880000
H      25.96700000     23.83400000     21.00400000
H      27.96900000     25.58500000     19.54900000
H      27.16400000     24.09800000     18.94200000
H      26.55630000     25.39350000     21.62530000
H      27.67130000     23.98540000     21.46870000
H      26.24290000     25.60510000     19.13060000
