13
pbedef2svp=-377.19056722794 b3lypdef2svp=-377.41336662198 b3lypvdz=-377.71149466276
N      20.29100000     24.87500000      9.50700000
C      19.44200000     22.74500000     12.51000000
O      18.57100000     23.61000000     12.28900000
N      20.71700000     22.96400000     12.26000000
C      21.18400000     24.26300000     11.69000000
C      21.11000000     24.11100000     10.17300000
O      21.84100000     23.19800000      9.68600000
H      19.77500000     25.56800000     10.01100000
H      21.38500000     22.24600000     12.45600000
H      20.53700000     25.08800000     12.02200000
H      20.15030000     24.80670000      8.51930000
H      19.16980000     21.73940000     12.86300000
H      22.21520000     24.44100000     12.02900000
