8
pbedef2svp=-79.63826877628 b3lypdef2svp=-79.70339245687 b3lypvdz=-79.76116305214
C      25.03400000     30.17000000     20.40100000
C      24.63900000     31.42600000     21.28600000
H      24.85900000     29.26400000     21.00000000
H      24.67100000     32.30400000     20.62400000
H      26.09140000     30.21680000     20.10160000
H      24.36060000     30.15480000     19.53130000
H      25.35980000     31.60060000     22.09840000
H      23.60990000     31.34340000     21.66570000
