17
pbedef2svp=-342.48892083764 b3lypdef2svp=-342.70715476967 b3lypvdz=-342.97099252686
O      23.57900000     31.32100000      9.55400000
N      22.24100000     31.87300000     11.24100000
C      23.21200000     32.76200000     11.89100000
C      22.69900000     34.26700000     11.98500000
N      21.67400000     30.03400000      8.19100000
C      21.41900000     30.25300000      9.62000000
C      22.50400000     31.22800000     10.13600000
H      21.34100000     31.75600000     11.66200000
H      24.14700000     32.76300000     11.31200000
H      21.74500000     34.28200000     12.53300000
H      22.02400000     29.14200000      7.90400000
H      20.41000000     30.65000000      9.80700000
H      23.42580000     32.37470000     12.89810000
H      22.54660000     34.58290000     10.94240000
H      23.43720000     34.88740000     12.51420000
H      21.51690000     30.72820000      7.48850000
H      21.57530000     29.29940000     10.14560000
