21
pbedef2svp=-290.77020376998
C      31.74400000     38.87900000     16.29900000
O      31.73700000     40.25700000     15.82400000
N      30.99100000     42.57100000     17.99800000
C      31.42200000     43.94000000     17.55300000
C      32.67200000     41.71700000     12.50500000
C      33.28000000     41.08600000     11.22700000
H      32.36600000     38.76400000     17.19900000
H      32.61800000     40.51000000     15.57300000
H      30.68610000     38.71460000     16.55180000
H      32.11290000     38.22830000     15.49250000
H      31.36100000     41.73700000     17.58800000
H      31.15100000     44.66200000     18.33700000
H      30.31060000     42.54650000     18.73040000
H      30.93200000     44.24190000     16.61560000
H      32.51930000     43.92450000     17.47690000
H      33.20000000     42.65600000     12.72600000
H      32.80100000     41.01800000     13.34500000
H      32.75600000     40.14700000     10.99400000
H      33.17300000     41.78500000     10.38400000
H      31.60030000     41.93050000     12.37910000
H      34.34620000     40.87950000     11.40180000
