13
pbedef2svp=-377.19187866321 b3lypdef2svp=-377.41418978019 b3lypvdz=-377.71251907052
C      32.12800000     19.36400000     19.75000000
O      32.54600000     19.31700000     18.55800000
N      31.69700000     18.31100000     20.40600000
C      31.56800000     16.96200000     19.82500000
C      30.32000000     16.69800000     19.05100000
O      30.19800000     15.65700000     18.36600000
N      29.34000000     17.59400000     19.07600000
H      31.43900000     18.43200000     21.36400000
H      32.42200000     16.80400000     19.15000000
H      31.61200000     16.23500000     20.64900000
H      29.44000000     18.40200000     19.65700000
H      32.22500000     20.30980000     20.30330000
H      28.50590000     17.48910000     18.53440000
