16
pbedef2svp=-362.31010643656
C      20.83500000     28.62900000     18.90400000
O      20.82100000     27.73400000     19.74900000
C      20.08300000     28.72900000     23.32100000
O      19.99100000     28.58400000     24.56100000
N      20.80100000     27.93100000     22.57800000
C      21.55000000     26.79600000     23.13300000
C      21.24200000     25.51900000     22.39100000
H      21.75670000     28.93810000     18.38930000
H      19.97480000     29.25760000     18.63040000
H      20.84300000     28.09900000     21.59300000
H      21.34400000     26.67500000     24.20700000
H      21.51100000     25.66300000     21.33400000
H      21.85900000     24.71600000     22.82000000
H      19.58350000     29.57980000     22.83460000
H      22.61870000     27.00390000     22.97580000
H      20.18890000     25.20450000     22.43650000
