17
pbedef2svp=-288.43940210802
C      31.40900000     32.68000000      6.44600000
O      32.61900000     32.81200000      6.12500000
N      30.88400000     31.48500000      6.66600000
C      32.99500000     35.88300000      9.93400000
C      33.30600000     34.38100000      9.84000000
C      34.53500000     34.02800000     10.72000000
H      29.90500000     31.41600000      6.85800000
H      30.74920000     33.55880000      6.49420000
H      31.43200000     30.64880000      6.64730000
H      33.82000000     36.38500000      9.40700000
H      32.43400000     33.80800000     10.18800000
H      33.52200000     34.12000000      8.79300000
H      34.74500000     32.95100000     10.64200000
H      35.41000000     34.59800000     10.37300000
H      34.32100000     34.28500000     11.76800000
H      32.08300000     36.17340000      9.39180000
H      33.07410000     36.22850000     10.97530000
