13
pbedef2svp=-231.91928128339
C      24.10100000     30.14900000     19.19600000
O      24.19600000     30.94800000     18.28700000
C      22.82400000     34.51400000     17.78200000
C      25.21400000     34.56500000     18.78000000
C      23.97800000     35.12100000     18.12600000
H      24.77440000     30.16420000     20.06570000
H      23.32440000     29.37080000     19.23240000
H      22.56500000     33.48000000     17.95500000
H      24.95100000     33.70000000     19.40600000
H      25.69000000     35.33700000     19.40200000
H      22.19620000     35.27230000     17.29120000
H      25.89920000     34.25400000     17.97760000
H      23.87700000     36.18030000     17.84720000
