14
pbedef2svp=-303.25505836405 b3lypdef2svp=-303.4448379599 b3lypvdz=-303.68003122648
N      30.12400000     34.53300000     21.19100000
C      30.47900000     35.36900000     22.37400000
N      28.52500000     34.44700000     18.18900000
C      29.80100000     34.14500000     18.82900000
C      30.05200000     35.04200000     20.00400000
O      30.10500000     36.30500000     19.78800000
H      29.93800000     33.55900000     21.31800000
H      30.50500000     36.43000000     22.08400000
H      28.44200000     35.28300000     17.64600000
H      29.80100000     33.10000000     19.17200000
H      31.49760000     35.04020000     22.62760000
H      29.75060000     35.23300000     23.18700000
H      27.73110000     33.84520000     18.27590000
H      30.59150000     34.25680000     18.07230000
