14
pbedef2svp=-303.23678843809
C      34.33800000     29.10300000     26.65000000
N      34.01400000     28.65700000     25.45700000
C      34.73800000     30.87500000     21.47300000
C      33.58900000     30.18900000     22.18100000
O      33.58000000     29.00900000     22.49900000
N      32.47800000     30.91700000     22.26900000
H      33.57700000     27.75900000     25.49900000
H      34.91050000     30.04000000     26.71520000
H      34.14820000     28.54850000     27.58080000
H      34.44500000     31.92400000     21.31900000
H      32.49800000     31.87600000     21.98800000
H      35.70020000     30.86360000     22.00590000
H      34.83590000     30.42250000     20.47520000
H      31.62410000     30.52410000     22.61040000
