16
pbedef2svp=-362.32044222567 b3lypdef2svp=-362.55102037564 b3lypvdz=-362.83616826643
C      30.49100000     19.16200000     12.04000000
O      29.36700000     19.52300000     12.44100000
C      27.57400000     18.19200000     14.56300000
C      26.48200000     19.28000000     14.43200000
O      25.60900000     19.38800000     15.28700000
N      26.58500000     20.06300000     13.37800000
C      25.59400000     21.10900000     13.07200000
H      30.71360000     19.10430000     10.96430000
H      31.33860000     18.97400000     12.71540000
H      28.56000000     18.63600000     14.36100000
H      27.36400000     19.94300000     12.76300000
H      25.51600000     21.80500000     13.92000000
H      27.52640000     17.81830000     15.59650000
H      27.37990000     17.38960000     13.83610000
H      24.61890000     20.62400000     12.91710000
H      25.94320000     21.66420000     12.18890000
