15
pbedef2svp=-175.28100647411
C      30.41600000     28.91200000     17.98000000
C      30.20500000     30.16800000     17.12900000
N      28.52500000     34.44700000     18.18900000
C      29.80100000     34.14500000     18.82900000
H      31.24500000     29.08800000     18.68100000
H      31.11700000     30.37800000     16.55200000
H      29.36400000     30.00600000     16.43900000
H      29.98200000     31.02200000     17.78500000
H      29.49180000     28.72420000     18.54620000
H      30.64830000     28.03280000     17.36110000
H      28.44200000     35.28300000     17.64600000
H      29.80100000     33.10000000     19.17200000
H      27.73110000     33.84520000     18.27590000
H      29.98510000     34.80310000     19.69100000
H      30.59150000     34.25680000     18.07230000
