13
pbedef2svp=-265.2152716679 b3lypdef2svp=-265.38570304941 b3lypvdz=-265.59171906011
C      34.73800000     30.87500000     21.47300000
N      36.00000000     30.86000000     22.17200000
C      38.42100000     28.04800000     21.34100000
O      37.21300000     28.03600000     21.70400000
N      39.37400000     28.09000000     22.24000000
H      34.44500000     31.92400000     21.31900000
H      36.65600000     30.13900000     21.94800000
H      33.90320000     30.37660000     21.98740000
H      34.83590000     30.42250000     20.47520000
H      36.25420000     31.53120000     22.86830000
H      40.32700000     28.14100000     21.94300000
H      38.71040000     28.02750000     20.27990000
H      39.16500000     28.07190000     23.21770000
