20
pbedef2svp=-327.6550973746
N      31.23300000     21.09000000     21.45900000
C      29.94200000     21.10600000     21.24000000
O      29.47000000     20.67700000     20.19000000
C      32.26200000     20.67000000     20.51400000
C      31.28800000     22.20100000     16.41700000
C      30.52000000     22.30000000     17.76400000
C      29.00600000     22.04300000     17.44200000
H      31.54300000     21.39500000     22.36000000
H      32.31500000     21.45700000     19.74700000
H      29.26390000     21.50910000     22.00660000
H      32.16500000     19.72420000     19.96070000
H      33.23390000     20.70250000     21.02820000
H      30.85300000     22.93800000     15.72600000
H      30.88200000     21.52100000     18.45100000
H      28.90200000     21.00100000     17.10700000
H      28.43100000     22.19000000     18.36800000
H      31.15610000     21.19280000     15.99730000
H      32.35780000     22.42960000     16.53200000
H      30.74120000     23.29180000     18.18510000
H      28.57490000     22.69440000     16.66750000
