5
pbedef2svp=-189.41122597562 b3lypdef2svp=-189.52212242419 b3lypvdz=-189.67545801753
C      24.18400000     16.01600000     16.61900000
O      25.30300000     15.89400000     17.15200000
O      23.57200000     15.10700000     15.97500000
H      24.10000000     14.31700000     15.96200000
H      23.65580000     16.97670000     16.70810000
