8
pbedef2svp=-133.63714301159 b3lypdef2svp=-133.72721678969 b3lypvdz=-133.82943275318
N      23.85300000     36.43200000     17.78100000
C      22.82400000     34.51400000     17.78200000
C      23.97800000     35.12100000     18.12600000
H      24.54200000     37.13900000     17.94000000
H      22.56500000     33.48000000     17.95500000
H      22.96570000     36.57880000     17.34380000
H      22.19620000     35.27230000     17.29120000
H      24.88150000     34.71460000     18.60410000
