9
pbedef2svp=-208.80961343478 b3lypdef2svp=-208.9400120787 b3lypvdz=-209.1035855052
C      39.07600000     34.93100000     29.03100000
O      38.29700000     34.94600000     29.99600000
N      40.29400000     34.41200000     29.04500000
C      38.66800000     35.50200000     27.68000000
H      40.83900000     34.43500000     28.20700000
H      39.13700000     34.87600000     26.90700000
H      40.68740000     33.99760000     29.86570000
H      37.57780000     35.42420000     27.55620000
H      38.96580000     36.54220000     27.48190000
