9
pbedef2svp=-208.79125569148 b3lypdef2svp=-208.92008953858 b3lypvdz=-209.08380023007
N      40.11700000     31.75000000      9.98800000
C      39.80800000     32.99400000      9.23300000
C      41.39900000     31.33800000      9.96700000
O      42.26000000     32.03600000      9.38100000
H      39.41000000     31.24600000     10.48500000
H      40.65200000     33.09000000      8.53400000
H      39.82940000     33.93840000      9.79660000
H      38.94160000     32.85380000      8.56990000
H      41.63080000     30.38150000     10.45830000
