13
pbedef2svp=-377.19185030523 b3lypdef2svp=-377.41590076363 b3lypvdz=-377.71332065488
N      28.26000000     33.94300000     11.09600000
C      26.88200000     31.42800000      7.86200000
O      27.90600000     31.71100000      7.26400000
N      26.21400000     32.09700000      8.77100000
C      26.77200000     33.43600000      9.19700000
C      27.15100000     33.36200000     10.65000000
O      26.35000000     32.77800000     11.39500000
H      28.87600000     34.37900000     10.44000000
H      25.36900000     31.73600000      9.16600000
H      27.66100000     33.67200000      8.59400000
H      28.49810000     33.95820000     12.06710000
H      26.42530000     30.46100000      7.60440000
H      25.99930000     34.19790000      9.01690000
