17
pbedef2svp=-288.3796319993
O      29.93000000     16.47700000     10.60600000
C      29.25800000     17.31800000      9.98400000
N      27.51000000     17.68900000     15.95400000
C      27.57400000     18.19200000     14.56300000
C      27.29900000     17.05500000     13.53300000
C      28.23600000     15.86400000     13.55800000
H      28.38130000     16.96630000      9.42040000
H      29.53900000     18.37370000      9.85540000
H      26.75900000     17.07400000     16.19600000
H      28.56000000     18.63600000     14.36100000
H      27.28300000     17.48700000     12.52200000
H      27.93200000     15.14100000     12.78700000
H      29.26400000     16.20200000     13.35900000
H      28.19300000     15.38400000     14.54700000
H      28.17060000     17.92570000     16.66650000
H      26.79760000     18.96560000     14.46990000
H      26.28680000     16.72790000     13.81300000
