6
pbedef2svp=-115.48158384525 b3lypdef2svp=-115.55968769374 b3lypvdz=-115.65137598447
C      27.29900000     17.05500000     13.53300000
O      25.92500000     16.61100000     13.91300000
H      27.28300000     17.48700000     12.52200000
H      25.65000000     15.90600000     13.33900000
H      27.49310000     17.85740000     14.25990000
H      27.97910000     16.19060000     13.55110000
