16
pbedef2svp=-362.31295468256 b3lypdef2svp=-362.54391086427 b3lypvdz=-362.82865236733
C      30.49100000     19.16200000     12.04000000
O      29.36700000     19.52300000     12.44100000
C      26.48200000     19.28000000     14.43200000
O      25.60900000     19.38800000     15.28700000
N      26.58500000     20.06300000     13.37800000
C      25.59400000     21.10900000     13.07200000
C      26.08400000     21.88800000     11.83300000
H      30.71360000     19.10430000     10.96430000
H      31.33860000     18.97400000     12.71540000
H      27.36400000     19.94300000     12.76300000
H      25.51600000     21.80500000     13.92000000
H      26.14900000     21.16800000     11.00400000
H      25.31800000     22.64300000     11.60300000
H      27.25840000     18.50640000     14.52510000
H      24.61890000     20.62400000     12.91710000
H      27.04990000     22.41200000     11.88270000
