14
pbedef2svp=-303.25432943613 b3lypdef2svp=-303.44443048915 b3lypvdz=-303.67971432553
N      34.93000000     34.38400000     25.45100000
C      35.16100000     34.17400000     26.89600000
C      36.67100000     34.29600000     27.08900000
O      37.30500000     33.23300000     26.79500000
N      37.19700000     35.39700000     27.51300000
C      38.66800000     35.50200000     27.68000000
H      35.33500000     33.73400000     24.80800000
H      34.63100000     34.92600000     27.50000000
H      36.61300000     36.17900000     27.72900000
H      39.13700000     34.87600000     26.90700000
H      34.39030000     35.14080000     25.08230000
H      34.84230000     33.15910000     27.17590000
H      38.96280000     35.08940000     28.65620000
H      38.96580000     36.54220000     27.48190000
