17
pbedef2svp=-288.43536908389
C      27.69100000     37.31500000     14.14300000
C      26.21900000     37.68400000     14.30700000
C      30.45900000     40.66600000     12.13000000
O      30.25300000     39.99100000     13.13300000
C      29.54200000     39.02000000     10.65300000
N      30.16300000     40.33800000     10.88600000
H      28.13900000     37.93800000     13.35500000
H      25.70800000     37.42000000     13.36900000
H      25.81700000     37.07300000     15.12800000
H      27.73490000     36.25610000     13.84830000
H      28.26010000     37.43200000     15.07710000
H      25.97730000     38.73380000     14.52920000
H      29.47700000     38.47800000     11.60800000
H      30.35300000     40.96100000     10.12800000
H      30.98010000     41.62410000     12.27310000
H      30.22710000     38.47380000      9.98800000
H      28.53770000     39.04040000     10.20460000
