16
pbedef2svp=-271.15839083314
C      20.63800000     26.73500000     16.05300000
C      19.67700000     26.53900000     15.05100000
C      20.14200000     21.59000000     15.14900000
O      19.49900000     22.64500000     15.32100000
C      22.08500000     22.25400000     16.58100000
C      21.07900000     21.14900000     16.25100000
H      20.75100000     26.00800000     16.84400000
H      19.01600000     25.68500000     15.08000000
H      21.27670000     27.63030000     16.03170000
H      19.61040000     27.27310000     14.23450000
H      22.74300000     22.39600000     15.71100000
H      21.52900000     23.18300000     16.77600000
H      20.48400000     20.94600000     17.15300000
H      20.01740000     20.99970000     14.22920000
H      22.71140000     22.03330000     17.45790000
H      21.65630000     20.24960000     15.99060000
