9
pbedef2svp=-154.71983560532 b3lypdef2svp=-154.82573740174 b3lypvdz=-154.94625079729
O      22.49500000     34.69000000     10.58900000
C      23.72700000     35.13100000     12.72200000
C      22.69900000     34.26700000     11.98500000
H      22.18600000     35.58800000     10.57200000
H      23.36200000     36.16700000     12.78000000
H      23.87600000     34.73700000     13.73800000
H      24.68200000     35.10900000     12.17700000
H      21.74500000     34.28200000     12.53300000
H      23.05330000     33.22760000     11.92010000
