13
pbedef2svp=-323.08568227458 b3lypdef2svp=-323.28898263023 b3lypvdz=-323.54479732762
C      26.88200000     31.42800000      7.86200000
O      27.90600000     31.71100000      7.26400000
O      29.80900000     29.39500000      5.54500000
N      31.83400000     28.41200000      5.12500000
C      31.67700000     30.27500000      6.63900000
C      31.02200000     29.28800000      5.66500000
H      26.42530000     30.46100000      7.60440000
H      26.32170000     31.98910000      8.62440000
H      32.82200000     28.45600000      5.27400000
H      32.72700000     30.46400000      6.36900000
H      31.42440000     27.69750000      4.55790000
H      31.07410000     31.19490000      6.65950000
H      31.59430000     29.85120000      7.65070000
