15
pbedef2svp=-233.13467610482
C      36.97500000     26.82600000     15.10700000
O      37.57900000     27.92600000     15.15900000
C      39.09000000     26.62900000     19.32500000
C      40.08200000     26.90400000     18.19800000
C      41.03500000     27.90900000     18.87900000
H      35.97690000     26.74570000     15.56230000
H      37.41260000     25.92150000     14.65940000
H      39.53200000     25.97200000     20.08900000
H      38.16800000     26.17200000     18.93700000
H      40.61100000     25.98900000     17.89400000
H      39.58500000     27.34800000     17.32300000
H      41.73000000     27.40700000     19.56800000
H      41.60700000     28.49000000     18.14100000
H      38.89320000     27.63190000     19.73170000
H      40.31170000     28.53820000     19.41850000
