15
pbedef2svp=-378.36574715852
C      29.27900000     23.22700000      5.64100000
O      28.47800000     23.52200000      4.72500000
N      29.38000000     22.05700000      6.23200000
C      28.46800000     20.94000000      5.98000000
N      26.33500000     27.77000000      3.25800000
C      26.91300000     26.63900000      3.53100000
O      27.88600000     26.46300000      4.26300000
H      30.12100000     21.92300000      6.89000000
H      27.69800000     21.22000000      5.24600000
H      30.00160000     23.95610000      6.03630000
H      27.99890000     20.70070000      6.94570000
H      29.00550000     20.04320000      5.63800000
H      25.55800000     27.80400000      2.63000000
H      26.67910000     28.60590000      3.68560000
H      26.45330000     25.76780000      3.04140000
