6
pbedef2svp=-169.56427982306 b3lypdef2svp=-169.66566780582 b3lypvdz=-169.80037992677
N      39.65500000     34.33500000     11.28500000
C      39.83700000     34.27100000      9.99500000
O      40.16400000     35.32300000      9.34500000
H      39.48700000     33.47600000     11.76900000
H      39.66950000     35.17360000     11.82950000
H      39.81560000     33.32660000      9.43140000
