20
pbedef2svp=-273.55342831686
C      38.72800000     26.59100000     12.61100000
O      39.70400000     27.34600000     12.27700000
C      40.26900000     30.50800000     14.11500000
C      40.99600000     29.39900000     14.86500000
C      40.08200000     26.90400000     18.19800000
C      41.03500000     27.90900000     18.87900000
H      38.77580000     25.98950000     13.53070000
H      37.81870000     26.55110000     11.99320000
H      40.23000000     31.41000000     14.74400000
H      40.46600000     29.18400000     15.80400000
H      41.02200000     28.49200000     14.24300000
H      39.25060000     30.21550000     13.81960000
H      40.85770000     30.72260000     13.21090000
H      42.02450000     29.71770000     15.09000000
H      40.61100000     25.98900000     17.89400000
H      39.58500000     27.34800000     17.32300000
H      41.73000000     27.40700000     19.56800000
H      41.60700000     28.49000000     18.14100000
H      39.36710000     26.70580000     19.01020000
H      40.31170000     28.53820000     19.41850000
