11
pbedef2svp=-118.86691263856 b3lypdef2svp=-118.95994464904 b3lypvdz=-119.04687240997
C      40.22600000     33.71600000     17.50900000
C      38.69300000     34.10600000     17.59500000
C      38.14600000     33.93200000     19.02700000
H      40.79400000     34.38800000     18.16900000
H      38.14400000     33.41300000     16.94100000
H      37.08200000     34.21100000     19.05000000
H      38.25700000     32.88200000     19.33700000
H      38.70900000     34.57900000     19.71600000
H      40.53700000     33.86550000     16.46450000
H      40.38750000     32.67470000     17.82470000
H      38.53620000     35.12310000     17.20650000
