16
pbedef2svp=-159.28108449568
C      29.96300000     33.31700000     12.81400000
C      29.95700000     31.83800000     12.35200000
C      33.28400000     30.50400000     14.55200000
C      34.22800000     30.63000000     13.31900000
H      30.75600000     33.85900000     12.27900000
H      30.93100000     31.37900000     12.57700000
H      29.16300000     31.29200000     12.88200000
H      29.77200000     31.79300000     11.26900000
H      28.99080000     33.78090000     12.59130000
H      30.14340000     33.37300000     13.89770000
H      32.24400000     30.40100000     14.20900000
H      33.56500000     29.61800000     15.14000000
H      33.37700000     31.40400000     15.17800000
H      33.94700000     31.51600000     12.73100000
H      34.13500000     29.73000000     12.69300000
H      35.26830000     30.73260000     13.66130000
