21
pbedef2svp=-348.64782621613
C      26.92600000     18.19100000     18.89200000
C      26.62100000     17.79900000     20.35200000
C      27.29900000     17.05500000     13.53300000
O      25.92500000     16.61100000     13.91300000
C      23.46100000     17.33100000     16.74100000
C      24.18400000     16.01600000     16.61900000
O      25.30300000     15.89400000     17.15200000
H      27.14900000     19.26800000     18.86300000
H      26.03200000     17.98500000     18.28500000
H      27.54500000     17.79200000     20.94900000
H      25.90200000     18.50300000     20.79700000
H      27.77560000     17.65050000     18.44920000
H      26.18900000     16.78870000     20.30110000
H      27.28300000     17.48700000     12.52200000
H      25.65000000     15.90600000     13.33900000
H      27.49310000     17.85740000     14.25990000
H      27.97910000     16.19060000     13.55110000
H      24.21600000     18.13000000     16.70200000
H      22.96200000     17.34600000     17.72100000
H      22.70120000     17.55460000     15.97760000
H      23.65440000     15.22930000     16.06170000
