9
pbedef2svp=-208.80886705547 b3lypdef2svp=-208.93990529823 b3lypvdz=-209.10318849425
O      23.57900000     31.32100000      9.55400000
N      22.24100000     31.87300000     11.24100000
C      21.41900000     30.25300000      9.62000000
C      22.50400000     31.22800000     10.13600000
H      21.34100000     31.75600000     11.66200000
H      20.41000000     30.65000000      9.80700000
H      22.90230000     32.47850000     11.68370000
H      21.61010000     30.08890000      8.54920000
H      21.57530000     29.29940000     10.14560000
