6
pbedef2svp=-169.57243248071 b3lypdef2svp=-169.67472353919 b3lypvdz=-169.80913168521
N      33.54800000     21.52600000     16.95000000
C      32.77600000     22.51900000     16.57700000
O      33.23300000     23.65900000     16.38400000
H      33.14600000     20.63400000     17.15600000
H      34.53630000     21.65660000     17.02930000
H      31.70620000     22.29040000     16.46200000
