16
pbedef2svp=-362.33231692625 b3lypdef2svp=-362.55958963285 b3lypvdz=-362.84371861637
C      27.57400000     18.19200000     14.56300000
C      26.48200000     19.28000000     14.43200000
O      25.60900000     19.38800000     15.28700000
C      27.29900000     17.05500000     13.53300000
O      25.92500000     16.61100000     13.91300000
N      26.58500000     20.06300000     13.37800000
C      25.59400000     21.10900000     13.07200000
H      28.56000000     18.63600000     14.36100000
H      27.28300000     17.48700000     12.52200000
H      25.65000000     15.90600000     13.33900000
H      27.36400000     19.94300000     12.76300000
H      25.51600000     21.80500000     13.92000000
H      27.52640000     17.81830000     15.59650000
H      27.97910000     16.19060000     13.55110000
H      24.61890000     20.62400000     12.91710000
H      25.94320000     21.66420000     12.18890000
