18
pbedef2svp=-235.27490645293
C      22.65000000     24.51600000     12.17200000
C      22.66200000     24.81900000     13.69900000
C      21.44700000     27.86900000     16.02600000
C      21.32500000     28.81300000     15.00500000
C      20.63800000     26.73500000     16.05300000
C      19.67700000     26.53900000     15.05100000
H      23.21600000     23.58600000     12.01300000
H      22.10700000     25.74900000     13.89000000
H      22.18400000     23.98900000     14.23900000
H      21.61880000     24.33800000     11.83300000
H      23.16720000     25.32030000     11.62840000
H      23.69790000     24.93390000     14.05070000
H      21.97400000     29.67600000     14.99200000
H      20.75100000     26.00800000     16.84400000
H      19.01600000     25.68500000     15.08000000
H      22.20570000     28.00520000     16.81080000
H      20.57180000     28.68300000     14.21400000
H      19.61040000     27.27310000     14.23450000
