13
pbedef2svp=-323.0910527557
C      32.12800000     19.36400000     19.75000000
O      32.54600000     19.31700000     18.55800000
N      31.11300000     20.86300000     15.86000000
C      31.39800000     19.06400000     14.28600000
C      31.59300000     20.55300000     14.65500000
O      32.15900000     21.31100000     13.86100000
H      32.22500000     20.30980000     20.30330000
H      31.76700000     18.48210000     20.29940000
H      30.62600000     20.16900000     16.39000000
H      30.40500000     18.73500000     14.62700000
H      31.23290000     21.77950000     16.24150000
H      31.48330000     18.96650000     13.19370000
H      32.16550000     18.45290000     14.78340000
