11
pbedef2svp=-118.85368357382 b3lypdef2svp=-118.94602398542 b3lypvdz=-119.03327144598
C      24.46900000     19.33200000      7.95200000
C      24.29900000     20.13400000      6.70400000
C      25.71400000     20.10800000      6.07300000
H      24.49800000     18.25500000      7.73000000
H      23.65900000     19.53700000      8.66800000
H      23.56000000     19.67000000      6.03400000
H      23.98900000     21.16400000      6.93600000
H      25.90100000     19.16700000      5.53500000
H      25.87000000     20.95700000      5.39100000
H      25.43740000     19.68300000      8.33790000
H      26.34030000     20.19100000      6.97350000
