16
pbedef2svp=-159.27992091375 b3lypdef2svp=-159.40957847325 b3lypvdz=-159.52490611934
C      31.74400000     38.87900000     16.29900000
C      32.26000000     37.96900000     15.17100000
C      32.34500000     34.18300000     18.35800000
C      33.36100000     34.49100000     17.24500000
H      32.36600000     38.76400000     17.19900000
H      33.32000000     38.19100000     14.97600000
H      32.15500000     36.91600000     15.47300000
H      31.67400000     38.14900000     14.25800000
H      30.68610000     38.71460000     16.55180000
H      31.73870000     39.91890000     15.94050000
H      32.46000000     34.90800000     19.17700000
H      34.38200000     34.41200000     17.64800000
H      33.23400000     33.77100000     16.42300000
H      33.19300000     35.51100000     16.86800000
H      31.33610000     34.26900000     17.92820000
H      32.49840000     33.16000000     18.73210000
