14
pbedef2svp=-307.04351101866
O      43.66600000     28.26200000      9.53900000
C      41.39800000     28.78000000      9.81000000
C      42.62600000     28.55700000      8.92800000
C      37.47100000     27.39100000     10.66800000
C      37.44100000     28.88200000     11.05200000
O      38.02000000     29.77200000     10.38200000
H      41.23000000     27.91100000     10.46300000
H      40.50500000     28.95100000      9.19100000
H      41.62820000     29.67330000     10.40920000
H      42.45250000     28.78280000      7.86550000
H      38.32600000     27.22700000      9.99500000
H      37.59160000     26.75970000     11.56070000
H      36.54750000     27.15040000     10.12100000
H      36.92150000     29.11950000     11.99210000
