17
pbedef2svp=-288.36196394464
C      36.33400000     31.74200000     23.08700000
O      35.57400000     32.61800000     23.48300000
C      35.75200000     32.05400000     28.16000000
C      35.61200000     30.57700000     28.04400000
N      35.04000000     30.25200000     26.73000000
C      34.71700000     32.76000000     27.28600000
H      37.33660000     31.66700000     23.53330000
H      36.05440000     31.00370000     22.32100000
H      36.76100000     32.34900000     27.83600000
H      35.60300000     32.35000000     29.20900000
H      36.60000000     30.10400000     28.14300000
H      34.94700000     30.20600000     28.83800000
H      35.16400000     30.85000000     25.93800000
H      33.77000000     32.82600000     27.84100000
H      34.56500000     32.17100000     26.37000000
H      34.51960000     29.40020000     26.67070000
H      35.03570000     33.77490000     27.00610000
