12
pbedef2svp=-193.91680235222
C      28.63800000     35.46100000     12.90000000
O      29.52200000     36.10300000     12.32000000
C      32.99500000     35.88300000      9.93400000
C      33.10900000     36.38100000     11.43500000
H      28.61460000     34.39800000     12.61790000
H      27.88010000     35.80790000     13.61780000
H      33.82000000     36.38500000      9.40700000
H      34.05800000     36.03000000     11.86700000
H      33.08000000     37.48000000     11.46000000
H      32.26900000     35.97900000     12.02000000
H      32.08300000     36.17340000      9.39180000
H      33.21760000     34.80790000      9.86670000
