6
pbedef2svp=-169.57474029068 b3lypdef2svp=-169.67730396466 b3lypvdz=-169.81145794291
N      25.56200000     32.73300000      1.80600000
C      26.78600000     32.56200000      2.27000000
O      27.78300000     33.16000000      1.87000000
H      25.39300000     33.39100000      1.07200000
H      24.80400000     32.20400000      2.18800000
H      26.85510000     31.83120000      3.08930000
