12
pbedef2svp=-248.01393800167 b3lypdef2svp=-248.17158188803 b3lypvdz=-248.36426050548
C      38.81700000     28.02000000     19.88900000
C      39.09000000     26.62900000     19.32500000
C      40.16800000     30.02600000     19.91800000
O      39.26400000     30.66200000     20.52100000
N      40.05900000     28.75800000     19.60700000
H      38.00200000     28.46900000     19.30300000
H      39.53200000     25.97200000     20.08900000
H      38.16800000     26.17200000     18.93700000
H      38.52760000     28.04050000     20.95010000
H      39.80490000     26.82720000     18.51280000
H      41.10530000     30.55160000     19.68310000
H      40.71650000     28.18600000     19.11660000
