18
pbedef2svp=-326.47901805695 b3lypdef2svp=-326.69355457541 b3lypvdz=-326.94376103324
C      29.18300000     39.72200000     21.58100000
C      29.30800000     39.75000000     23.09500000
C      29.66400000     39.83900000     17.43400000
O      28.85000000     40.56500000     16.85900000
N      30.13200000     40.06900000     18.64200000
C      29.60700000     41.18000000     19.46700000
C      29.91900000     40.89000000     20.93800000
H      29.62800000     38.78600000     21.21200000
H      28.76600000     38.89400000     23.52400000
H      30.37000000     39.69000000     23.37600000
H      28.87900000     40.68700000     23.48100000
H      30.85500000     39.48300000     19.00900000
H      28.51100000     41.16800000     19.37000000
H      30.99700000     40.68600000     21.01500000
H      29.67500000     41.79500000     21.51400000
H      28.11290000     39.72130000     21.32630000
H      30.06730000     38.97920000     16.87900000
H      29.94670000     42.16570000     19.11640000
