14
pbedef2svp=-303.27060172305 b3lypdef2svp=-303.46028073643 b3lypvdz=-303.69535372316
N      41.31700000     34.39300000     13.43200000
C      42.34500000     34.26900000     14.43100000
C      41.94900000     34.07600000     15.84200000
O      42.82900000     34.00000000     16.73900000
N      40.64200000     33.91600000     16.11200000
C      40.22600000     33.71600000     17.50900000
H      41.07700000     33.58800000     12.89000000
H      42.96700000     33.40700000     14.14900000
H      42.95000000     35.18700000     14.38800000
H      39.96500000     33.93300000     15.37700000
H      40.79400000     34.38800000     18.16900000
H      40.83200000     35.24970000     13.25670000
H      40.38750000     32.67470000     17.82470000
H      39.16150000     33.98680000     17.56870000
