14
pbedef2svp=-249.21431563578
C      35.70800000     30.77600000     13.80600000
C      35.87400000     32.13800000     14.51200000
N      37.49900000     25.74300000     14.57100000
C      36.97500000     26.82600000     15.10700000
O      37.57900000     27.92600000     15.15900000
H      35.89000000     29.98800000     14.55100000
H      35.13000000     32.22700000     15.31700000
H      36.88600000     32.20900000     14.93800000
H      35.72500000     32.94900000     13.78400000
H      36.42890000     30.63080000     12.98790000
H      34.66770000     30.67340000     13.46370000
H      36.99800000     24.88000000     14.63700000
H      38.38120000     25.75530000     14.10030000
H      35.97690000     26.74570000     15.56230000
