7
pbedef2svp=-153.52372737159 b3lypdef2svp=-153.62370351261 b3lypvdz=-153.74531303338
C      39.67600000     35.54700000     12.07200000
C      40.67500000     35.52700000     13.20000000
O      40.81400000     36.52800000     13.91100000
H      39.91600000     36.39600000     11.41500000
H      39.66000000     34.62450000     11.47300000
H      38.68860000     35.73720000     12.51800000
H      41.20850000     34.58460000     13.39280000
