11
pbedef2svp=-230.72748278895 b3lypdef2svp=-230.87699533592 b3lypvdz=-231.05856016679
C      24.27200000     21.54400000     17.64400000
C      25.05200000     21.28500000     18.77600000
C      23.20400000     21.90700000     20.19200000
C      24.51700000     21.47000000     20.03000000
O      25.24800000     21.30200000     21.19100000
H      24.69800000     21.42900000     16.65800000
H      26.07000000     20.94100000     18.66600000
H      22.79100000     22.04900000     21.18000000
H      26.12400000     21.00400000     20.97400000
H      23.22570000     21.86490000     17.75520000
H      22.59530000     22.10540000     19.29750000
