20
pbedef2svp=-273.56148330525
C      31.59300000     20.55300000     14.65500000
O      32.15900000     21.31100000     13.86100000
C      31.15200000     24.42100000     12.47700000
C      32.06000000     25.25700000     13.36400000
C      27.42600000     22.61600000     11.90200000
C      27.38000000     23.72100000     12.95500000
H      31.45430000     19.49380000     14.39250000
H      31.19710000     20.80870000     15.64890000
H      30.10600000     24.56300000     12.78500000
H      31.27200000     24.73600000     11.43000000
H      31.42200000     23.35900000     12.57400000
H      31.94400000     24.89900000     14.39800000
H      33.11820000     25.14210000     13.08670000
H      31.79120000     26.32350000     13.34830000
H      28.23400000     21.90500000     12.13000000
H      28.35200000     24.23400000     12.99200000
H      26.59400000     24.44400000     12.69300000
H      27.16100000     23.28100000     13.93900000
H      26.46010000     22.09200000     11.85230000
H      27.63490000     23.13470000     10.95470000
