8
pbedef2svp=-79.63819786243 b3lypdef2svp=-79.70333675344 b3lypvdz=-79.76100984894
C      31.82700000     27.26200000      2.89400000
C      31.36300000     28.41000000      1.96200000
H      32.92200000     27.30900000      2.98900000
H      31.53900000     26.30300000      2.43900000
H      30.27100000     28.49200000      2.06200000
H      31.83500000     29.33600000      2.32200000
H      31.38500000     27.31950000      3.89960000
H      31.58880000     28.32280000      0.88900000
