14
pbedef2svp=-158.09465771925 b3lypdef2svp=-158.2156590868 b3lypvdz=-158.33161583491
C      26.82600000     24.52100000     21.01200000
C      27.04300000     24.99200000     19.57100000
C      25.93100000     25.84400000     18.95900000
C      26.20300000     26.08300000     17.47100000
H      25.96700000     23.83400000     21.00400000
H      27.96900000     25.58500000     19.54900000
H      27.16400000     24.09800000     18.94200000
H      25.90600000     26.81600000     19.47400000
H      25.39600000     26.69700000     17.04400000
H      27.16300000     26.60700000     17.35300000
H      26.24600000     25.11700000     16.94600000
H      26.55630000     25.39350000     21.62530000
H      27.67130000     23.98540000     21.46870000
H      24.94360000     25.36710000     19.04650000
