12
pbedef2svp=-248.03133305087 b3lypdef2svp=-248.1890830668 b3lypvdz=-248.38191727647
C      38.79400000     25.76100000     13.88000000
C      38.72800000     26.59100000     12.61100000
O      39.70400000     27.34600000     12.27700000
N      37.63300000     26.54300000     11.86700000
C      37.47100000     27.39100000     10.66800000
H      39.53500000     26.22600000     14.54600000
H      36.89700000     25.91700000     12.12400000
H      38.32600000     27.22700000      9.99500000
H      37.82360000     25.74750000     14.39780000
H      39.14480000     24.74290000     13.65570000
H      37.44960000     28.45600000     10.94230000
H      36.54750000     27.15040000     10.12100000
