13
pbedef2svp=-269.01056193909
C      28.11300000     39.04900000     10.01500000
O      27.28000000     39.72200000     10.99600000
C      27.69100000     37.31500000     14.14300000
C      28.46900000     37.47500000     15.42000000
O      28.21300000     36.75300000     16.41100000
H      28.15100000     39.62800000      9.08100000
H      26.38900000     39.77600000     10.67200000
H      29.11730000     39.02860000     10.46340000
H      27.73750000     38.03760000      9.80040000
H      28.13900000     37.93800000     13.35500000
H      27.73490000     36.25610000     13.84830000
H      26.63020000     37.58090000     14.26120000
H      29.24750000     38.25190000     15.44120000
