7
pbedef2svp=-153.51612513849 b3lypdef2svp=-153.61494380897 b3lypvdz=-153.73725670997
C      35.16100000     34.17400000     26.89600000
C      36.67100000     34.29600000     27.08900000
O      37.30500000     33.23300000     26.79500000
H      34.63100000     34.92600000     27.50000000
H      34.98910000     34.33030000     25.82080000
H      34.84230000     33.15910000     27.17590000
H      37.11890000     35.23360000     27.45010000
