16
pbedef2svp=-362.26821501946
C      30.95500000     35.21100000      8.45900000
O      30.02500000     34.61800000      9.04000000
N      28.26000000     33.94300000     11.09600000
C      28.60500000     33.96500000     12.50300000
C      28.63800000     35.46100000     12.90000000
O      29.52200000     36.10300000     12.32000000
C      29.96300000     33.31700000     12.81400000
H      31.51460000     35.99950000      8.98350000
H      31.19690000     35.02270000      7.40260000
H      28.87600000     34.37900000     10.44000000
H      27.82500000     33.46000000     13.09200000
H      30.75600000     33.85900000     12.27900000
H      27.42560000     33.50580000     10.76040000
H      27.88010000     35.80790000     13.61780000
H      30.14340000     33.37300000     13.89770000
H      29.95870000     32.26700000     12.48600000
