20
pbedef2svp=-364.69865746517
C      26.08400000     21.88800000     11.83300000
C      27.42600000     22.61600000     11.90200000
C      23.05900000     17.32600000     11.15400000
O      23.91400000     16.39500000     11.75500000
C      26.54100000     18.73200000      9.25100000
O      26.33300000     18.53600000     10.45700000
N      27.36100000     17.95900000      8.55900000
H      26.14900000     21.16800000     11.00400000
H      25.31800000     22.64300000     11.60300000
H      28.23400000     21.90500000     12.13000000
H      25.73480000     21.33280000     12.71610000
H      27.63490000     23.13470000     10.95470000
H      27.39290000     23.41200000     12.66050000
H      22.06600000     16.87100000     11.02100000
H      23.46700000     17.60900000     10.17200000
H      23.98400000     15.62600000     11.20200000
H      22.96230000     18.22670000     11.77810000
H      27.51100000     18.13900000      7.58700000
H      26.02170000     19.52920000      8.69890000
H      27.83170000     17.19550000      9.00120000
