13
pbedef2svp=-211.12142762838
C      27.29900000     17.05500000     13.53300000
O      25.92500000     16.61100000     13.91300000
N      24.24000000     19.23300000     12.24600000
C      22.92400000     18.58300000     12.02500000
H      27.28300000     17.48700000     12.52200000
H      25.65000000     15.90600000     13.33900000
H      27.49310000     17.85740000     14.25990000
H      27.97910000     16.19060000     13.55110000
H      25.09100000     18.79700000     11.95400000
H      22.28300000     19.29200000     11.48000000
H      24.24070000     20.12460000     12.69880000
H      22.41860000     18.33650000     12.97040000
H      23.02070000     17.68240000     11.40090000
