9
pbedef2svp=-208.80910125842 b3lypdef2svp=-208.93966064497 b3lypvdz=-209.10310295577
C      20.14200000     21.59000000     15.14900000
O      19.49900000     22.64500000     15.32100000
N      19.99300000     20.88400000     14.04900000
C      21.07900000     21.14900000     16.25100000
H      20.50600000     20.03400000     13.92400000
H      20.48400000     20.94600000     17.15300000
H      19.36490000     21.20080000     13.33830000
H      21.65630000     20.24960000     15.99060000
H      21.80210000     21.94330000     16.48820000
