9
pbedef2svp=-208.80854748611 b3lypdef2svp=-208.93872071485 b3lypvdz=-209.1025698041
N      41.00100000     29.87800000     11.93100000
C      40.26900000     30.50800000     14.11500000
C      41.09200000     30.80800000     12.85100000
O      41.82800000     31.80800000     12.68100000
H      40.44300000     29.06500000     12.10000000
H      40.23000000     31.41000000     14.74400000
H      41.48510000     29.97520000     11.06140000
H      39.25060000     30.21550000     13.81960000
H      40.79390000     29.70730000     14.65650000
