13
pbedef2svp=-323.03921548031
C      26.48200000     19.28000000     14.43200000
O      25.60900000     19.38800000     15.28700000
C      20.14200000     21.59000000     15.14900000
O      19.49900000     22.64500000     15.32100000
N      21.84600000     19.95400000     15.90500000
C      21.07900000     21.14900000     16.25100000
H      27.25840000     18.50640000     14.52510000
H      26.56800000     19.93400000     13.55170000
H      22.72300000     20.07900000     15.44100000
H      20.48400000     20.94600000     17.15300000
H      20.01740000     20.99970000     14.22920000
H      21.54970000     19.01970000     16.10310000
H      21.80210000     21.94330000     16.48820000
