16
pbedef2svp=-159.26735104027 b3lypdef2svp=-159.39658067409 b3lypvdz=-159.51167691844
C      31.56200000     29.68600000      8.04500000
C      32.63100000     29.44400000      9.06000000
C      29.90300000     24.59000000      7.66500000
C      30.86200000     25.49600000      8.38900000
H      30.84400000     30.34400000      8.55700000
H      31.10600000     28.69700000      7.88900000
H      33.02000000     28.42800000      8.89700000
H      31.64470000     30.10980000      7.03330000
H      33.48990000     30.13090000      9.03820000
H      32.14020000     29.44760000     10.04440000
H      29.89100000     23.63600000      8.21200000
H      30.49800000     25.67400000      9.41200000
H      31.85400000     25.02200000      8.43000000
H      30.93500000     26.45400000      7.85400000
H      30.17450000     24.34680000      6.62710000
H      28.87570000     24.98230000      7.69380000
