14
pbedef2svp=-249.21680825886
C      26.07000000     27.02500000     24.96000000
C      27.55300000     27.35600000     24.69500000
N      27.94200000     22.44800000     21.64800000
C      27.99400000     23.78100000     21.64300000
O      28.90400000     24.44400000     22.09800000
H      25.61000000     27.84000000     25.53800000
H      25.99900000     26.08600000     25.52900000
H      28.02600000     26.52000000     24.15900000
H      27.62300000     28.26900000     24.08500000
H      25.54450000     26.91350000     24.00010000
H      28.06650000     27.51530000     25.65460000
H      27.17100000     21.98000000     21.21600000
H      28.66760000     21.91310000     22.08080000
H      27.14870000     24.31660000     21.18630000
