15
pbedef2svp=-233.15623701093 b3lypdef2svp=-233.32031708838 b3lypvdz=-233.49976933701
C      41.46100000     30.75100000     19.59400000
C      42.19500000     31.14200000     20.91300000
C      39.91900000     32.85400000     23.84000000
C      40.76000000     34.03600000     23.39400000
O      41.97500000     34.00800000     23.62400000
H      42.11200000     30.14800000     18.94400000
H      41.47600000     31.30900000     21.72900000
H      42.91200000     30.36200000     21.21000000
H      41.25790000     31.74700000     19.17360000
H      40.52370000     30.22540000     19.82890000
H      42.71490000     32.07470000     20.64900000
H      39.79500000     32.89900000     24.93200000
H      40.44000000     31.92400000     23.56800000
H      38.92460000     32.85400000     23.36960000
H      40.23850000     34.85270000     22.87340000
