14
pbedef2svp=-303.26894916968 b3lypdef2svp=-303.45875697844 b3lypvdz=-303.69400534831
C      35.54100000     21.41800000     10.87100000
O      36.77200000     21.62300000     10.67600000
N      34.62800000     21.59500000      9.92000000
N      35.13900000     21.62400000     14.66200000
C      35.59000000     21.94500000     13.30200000
C      35.06400000     20.95700000     12.25500000
H      34.90700000     21.90100000      9.01000000
H      33.66300000     21.42200000     10.11500000
H      34.42500000     20.93200000     14.76600000
H      36.68700000     21.87000000     13.28900000
H      35.45300000     19.95000000     12.46600000
H      33.96400000     20.93800000     12.28200000
H      35.49880000     22.05180000     15.49120000
H      35.33660000     22.97950000     13.02700000
