11
pbedef2svp=-118.86686200911 b3lypdef2svp=-118.95994721558 b3lypvdz=-119.04694034735
C      34.50900000     26.07700000     19.36000000
C      35.71500000     26.20300000     17.17200000
C      34.34300000     26.44500000     17.89800000
H      34.78800000     25.01600000     19.43700000
H      35.30300000     26.69700000     19.80200000
H      35.94800000     25.12800000     17.16500000
H      36.51400000     26.74800000     17.69600000
H      34.05700000     27.50400000     17.81100000
H      33.56400000     25.81600000     17.44200000
H      33.57070000     26.24550000     19.90870000
H      35.62940000     26.57130000     16.13900000
