14
pbedef2svp=-517.94381036008
S      23.93000000     23.95900000      5.90400000
C      24.44700000     23.98400000      7.62000000
C      29.90300000     24.59000000      7.66500000
C      28.47600000     25.13500000      7.70500000
H      23.69300000     23.47500000      8.23800000
H      25.41300000     23.46700000      7.71900000
H      24.55300000     25.02600000      7.95600000
H      24.95960000     24.61090000      5.34690000
H      29.89100000     23.63600000      8.21200000
H      28.20500000     25.37800000      8.74300000
H      28.41300000     26.04300000      7.08700000
H      27.78300000     24.37600000      7.31300000
H      30.17450000     24.34680000      6.62710000
H      30.60400000     25.25220000      8.19420000
