16
pbedef2svp=-362.2639999586
C      24.24100000     20.43600000     12.85700000
O      23.26400000     20.95100000     13.32900000
N      20.71700000     22.96400000     12.26000000
C      21.18400000     24.26300000     11.69000000
C      21.11000000     24.11100000     10.17300000
O      21.84100000     23.19800000      9.68600000
C      22.65000000     24.51600000     12.17200000
H      25.21610000     20.92100000     13.01190000
H      24.24020000     19.45520000     12.35890000
H      21.38500000     22.24600000     12.45600000
H      20.53700000     25.08800000     12.02200000
H      23.21600000     23.58600000     12.01300000
H      19.74930000     22.79780000     12.44970000
H      20.41860000     24.75590000      9.61080000
H      22.65850000     24.73010000     13.25090000
H      23.16720000     25.32030000     11.62840000
