12
pbedef2svp=-247.96551644212 b3lypdef2svp=-248.12481304749 b3lypvdz=-248.31856415418
N      26.55900000     20.22000000      7.28800000
C      25.82900000     19.82500000      8.49400000
C      26.54100000     18.73200000      9.25100000
O      26.33300000     18.53600000     10.45700000
C      25.71400000     20.10800000      6.07300000
H      25.66900000     20.69300000      9.15000000
H      25.90100000     19.16700000      5.53500000
H      25.87000000     20.95700000      5.39100000
H      27.51430000     20.51490000      7.30920000
H      24.86060000     19.47400000      8.10810000
H      27.22310000     18.08900000      8.67540000
H      24.70950000     20.12650000      6.52090000
