22
pbedef2svp=-328.79577080009
C      34.50900000     26.07700000     19.36000000
C      33.20600000     26.31100000     20.12200000
C      38.42100000     28.04800000     21.34100000
O      37.21300000     28.03600000     21.70400000
C      34.73800000     30.87500000     21.47300000
C      34.87600000     30.23700000     20.06600000
N      36.00000000     30.86000000     22.17200000
H      34.78800000     25.01600000     19.43700000
H      35.30300000     26.69700000     19.80200000
H      32.92400000     27.37300000     20.07200000
H      32.40100000     25.69700000     19.69200000
H      34.38860000     26.34390000     18.29970000
H      33.38860000     26.01700000     21.16610000
H      38.71040000     28.02750000     20.27990000
H      39.22070000     28.08320000     22.09540000
H      34.44500000     31.92400000     21.31900000
H      35.08000000     29.16300000     20.18800000
H      33.92600000     30.37100000     19.52700000
H      36.65600000     30.13900000     21.94800000
H      33.90320000     30.37660000     21.98740000
H      35.68390000     30.68000000     19.46510000
H      36.25420000     31.53120000     22.86830000
