6
pbedef2svp=-78.40474184938 b3lypdef2svp=-78.46568740301 b3lypvdz=-78.52540165967
C      20.36900000     28.64800000     14.00100000
C      19.59300000     27.46500000     14.02100000
H      20.22700000     29.39700000     13.23600000
H      18.91100000     27.27600000     13.20500000
H      21.12220000     28.77800000     14.79200000
H      19.65960000     26.73090000     14.83750000
