12
pbedef2svp=-193.91964281494
C      28.76200000     29.57300000     19.90600000
C      29.15100000     28.65500000     18.75500000
C      27.47500000     33.65100000     18.30400000
O      27.50700000     32.58700000     18.95800000
H      28.81600000     30.60900000     19.54100000
H      29.23500000     27.64100000     19.17300000
H      28.32300000     28.68600000     18.03100000
H      29.45240000     29.47150000     20.75640000
H      27.72920000     29.38820000     20.23650000
H      30.07520000     28.84280000     18.18880000
H      26.54180000     33.99370000     17.83310000
H      28.34830000     34.31300000     18.20840000
