8
pbedef2svp=-79.63386849861 b3lypdef2svp=-79.69893242704 b3lypvdz=-79.75653040404
C      39.08000000     36.94100000     27.40600000
C      38.66800000     35.50200000     27.68000000
H      38.22400000     37.57700000     27.67600000
H      39.92700000     37.16400000     28.07100000
H      39.13700000     34.87600000     26.90700000
H      39.38550000     37.22990000     26.38950000
H      37.57780000     35.42420000     27.55620000
H      38.96280000     35.08940000     28.65620000
