15
pbedef2svp=-287.15617126894
C      22.82400000     34.51400000     17.78200000
C      23.97800000     35.12100000     18.12600000
N      26.43600000     30.23200000     20.00400000
C      25.03400000     30.17000000     20.40100000
C      24.10100000     30.14900000     19.19600000
O      24.19600000     30.94800000     18.28700000
H      22.56500000     33.48000000     17.95500000
H      22.19620000     35.27230000     17.29120000
H      24.88150000     34.71460000     18.60410000
H      23.87700000     36.18030000     17.84720000
H      26.73800000     30.99700000     19.43500000
H      24.85900000     29.26400000     21.00000000
H      27.10910000     29.54380000     20.27480000
H      24.76010000     31.04090000     21.01460000
H      23.32440000     29.37080000     19.23240000
