11
pbedef2svp=-118.86771259779 b3lypdef2svp=-118.96091192636 b3lypvdz=-119.04773934152
C      37.47100000     27.39100000     10.66800000
C      36.19300000     27.05800000      9.91100000
C      36.15300000     25.62000000      9.40900000
H      38.32600000     27.22700000      9.99500000
H      35.33700000     27.21800000     10.58200000
H      36.11200000     27.73300000      9.04600000
H      36.87800000     25.50100000      8.59000000
H      36.41500000     24.94000000     10.23300000
H      37.59160000     26.75970000     11.56070000
H      37.44960000     28.45600000     10.94230000
H      35.14570000     25.37450000      9.04150000
