13
pbedef2svp=-319.22901613192 b3lypdef2svp=-319.42626135044 b3lypvdz=-319.67702333502
C      30.32000000     16.69800000     19.05100000
O      30.19800000     15.65700000     18.36600000
N      28.51900000     13.96700000     21.55000000
N      26.97500000     15.52100000     20.94200000
C      27.60300000     14.42300000     20.65500000
N      27.47900000     13.73300000     19.53700000
H      31.24010000     16.89260000     19.62160000
H      29.50830000     17.44010000     19.07170000
H      29.05600000     13.14900000     21.34300000
H      28.65600000     14.45000000     22.41500000
H      27.21900000     15.86700000     21.84800000
H      28.09800000     12.94800000     19.51000000
H      26.30750000     16.10820000     20.48410000
