18
pbedef2svp=-326.49218826803 b3lypdef2svp=-326.70613481435 b3lypvdz=-326.95702140142
C      40.22600000     33.71600000     17.50900000
C      40.44900000     32.27800000     17.94500000
O      39.93600000     31.33600000     17.31500000
C      38.69300000     34.10600000     17.59500000
C      38.47100000     35.54600000     17.04500000
C      36.95800000     35.74600000     16.68000000
N      41.18900000     32.08500000     19.03100000
H      40.79400000     34.38800000     18.16900000
H      38.14400000     33.41300000     16.94100000
H      38.76200000     36.27900000     17.81200000
H      39.08700000     35.69300000     16.14500000
H      36.80500000     36.76400000     16.29200000
H      36.66600000     35.01400000     15.91300000
H      36.34200000     35.60000000     17.57900000
H      40.53700000     33.86550000     16.46450000
H      38.30300000     33.98190000     18.61600000
H      41.37360000     31.17950000     19.41310000
H      41.61300000     32.82380000     19.55480000
