18
pbedef2svp=-326.48766210304 b3lypdef2svp=-326.70256875185 b3lypvdz=-326.9528049243
C      37.73800000     31.63700000     23.71200000
C      36.33400000     31.74200000     23.08700000
O      35.57400000     32.61800000     23.48300000
C      38.52800000     32.85400000     23.18200000
C      39.91900000     32.85400000     23.84000000
N      36.00000000     30.86000000     22.17200000
C      34.73800000     30.87500000     21.47300000
H      37.65300000     31.71100000     24.80600000
H      38.63400000     32.78100000     22.09000000
H      37.99600000     33.78200000     23.43800000
H      39.79500000     32.89900000     24.93200000
H      40.44000000     31.92400000     23.56800000
H      36.65600000     30.13900000     21.94800000
H      34.44500000     31.92400000     21.31900000
H      38.24310000     30.69940000     23.43680000
H      40.52860000     33.71070000     23.51670000
H      33.90320000     30.37660000     21.98740000
H      34.83590000     30.42250000     20.47520000
