5
pbedef2svp=-40.41416862488 b3lypdef2svp=-40.45103243961 b3lypvdz=-40.47957994567
C      41.71800000     30.02200000     10.64300000
H      42.79800000     30.00900000     10.85200000
H      41.18550000     29.91510000     11.59960000
H      41.48610000     30.97850000     10.15170000
H      41.48780000     29.12870000     10.04380000
