14
pbedef2svp=-269.91657208468
C      26.48200000     19.28000000     14.43200000
O      25.60900000     19.38800000     15.28700000
C      24.51700000     21.47000000     20.03000000
C      24.27200000     21.54400000     17.64400000
C      25.05200000     21.28500000     18.77600000
C      23.20400000     21.90700000     20.19200000
H      27.25840000     18.50640000     14.52510000
H      26.56800000     19.93400000     13.55170000
H      24.69800000     21.42900000     16.65800000
H      26.07000000     20.94100000     18.66600000
H      22.79100000     22.04900000     21.18000000
H      25.09870000     21.33630000     20.95400000
H      23.22570000     21.86490000     17.75520000
H      22.59530000     22.10540000     19.29750000
