17
pbedef2svp=-342.48474305919 b3lypdef2svp=-342.70273779021 b3lypvdz=-342.9672282253
N      32.76300000     35.83100000     23.09000000
C      34.14500000     35.47200000     23.48100000
C      34.23900000     35.35300000     24.97900000
O      33.70700000     36.19700000     25.72800000
C      35.11400000     36.56400000     22.90700000
C      35.92600000     35.97900000     21.73700000
N      34.93000000     34.38400000     25.45100000
H      32.48200000     36.79100000     23.10200000
H      34.41100000     34.50500000     23.02800000
H      34.52600000     37.42200000     22.55000000
H      35.80200000     36.89500000     23.69900000
H      36.73600000     35.36100000     22.15200000
H      35.33500000     33.73400000     24.80800000
H      32.10620000     35.12920000     22.81420000
H      35.25950000     35.33270000     21.14700000
H      36.36930000     36.78820000     21.13810000
H      35.08630000     34.24190000     26.42840000
