16
pbedef2svp=-271.16129246989
C      25.28800000     34.60900000      7.49900000
C      24.14700000     33.96600000      7.03800000
O      23.57900000     31.32100000      9.55400000
C      21.63700000     28.92300000     10.35300000
C      21.41900000     30.25300000      9.62000000
C      22.50400000     31.22800000     10.13600000
H      23.51900000     33.41800000      7.72500000
H      25.58500000     34.52800000      8.55500000
H      25.94760000     35.18220000      6.83090000
H      23.88440000     34.01700000      5.97100000
H      22.57800000     28.46500000     10.01500000
H      21.68500000     29.10200000     11.43700000
H      20.41000000     30.65000000      9.80700000
H      20.79700000     28.24970000     10.12700000
H      21.61010000     30.08890000      8.54920000
H      22.28250000     31.77120000     11.06650000
