14
pbedef2svp=-249.21403032407
C      31.82700000     27.26200000      2.89400000
C      31.22000000     27.34100000      4.27500000
N      26.33500000     27.77000000      3.25800000
C      26.91300000     26.63900000      3.53100000
O      27.88600000     26.46300000      4.26300000
H      32.92200000     27.30900000      2.98900000
H      31.53900000     26.30300000      2.43900000
H      30.13900000     27.52500000      4.18300000
H      31.49770000     28.07680000      2.23250000
H      31.67060000     28.12700000      4.89880000
H      31.38000000     26.42350000      4.86030000
H      25.55800000     27.80400000      2.63000000
H      26.67910000     28.60590000      3.68560000
H      26.45330000     25.76780000      3.04140000
