8
pbedef2svp=-79.63756346691 b3lypdef2svp=-79.70280204913 b3lypvdz=-79.76046329719
C      20.21000000     26.42300000      3.17500000
C      20.26800000     26.58900000      1.65600000
H      19.86200000     25.41000000      3.42700000
H      19.52200000     27.16500000      3.60600000
H      20.17600000     27.66100000      1.42700000
H      21.24600000     26.22300000      1.31100000
H      21.22400000     26.57930000      3.57170000
H      19.48750000     26.05310000      1.09590000
