6
pbedef2svp=-169.5736974059 b3lypdef2svp=-169.67642588692 b3lypvdz=-169.81052014539
N      26.58500000     20.06300000     13.37800000
C      26.48200000     19.28000000     14.43200000
O      25.60900000     19.38800000     15.28700000
H      27.36400000     19.94300000     12.76300000
H      25.91220000     20.77310000     13.17030000
H      27.25840000     18.50640000     14.52510000
