8
pbedef2svp=-79.64019518574 b3lypdef2svp=-79.70542609668 b3lypvdz=-79.7631248872
C      34.87600000     30.23700000     20.06600000
C      36.01200000     30.86000000     19.22100000
H      35.08000000     29.16300000     20.18800000
H      33.92600000     30.37100000     19.52700000
H      35.81700000     31.93400000     19.08500000
H      36.97000000     30.72500000     19.74400000
H      34.77810000     30.68950000     21.06380000
H      36.06390000     30.37270000     18.23620000
