8
pbedef2svp=-79.63890781232 b3lypdef2svp=-79.70407209328 b3lypvdz=-79.76182638536
C      31.39800000     19.06400000     14.28600000
C      32.49200000     18.19300000     14.99500000
H      30.40500000     18.73500000     14.62700000
H      32.40300000     18.31600000     16.08500000
H      31.48330000     18.96650000     13.19370000
H      31.53670000     20.12320000     14.54850000
H      33.44980000     18.59970000     14.63820000
H      32.39220000     17.12890000     14.73480000
