13
pbedef2svp=-231.9729066478 b3lypdef2svp=-232.12753509802 b3lypvdz=-232.30782815267
C      23.37600000     25.64500000     11.40900000
C      21.18400000     24.26300000     11.69000000
C      21.11000000     24.11100000     10.17300000
O      21.84100000     23.19800000      9.68600000
C      22.65000000     24.51600000     12.17200000
H      24.39600000     25.75900000     11.80600000
H      23.42500000     25.39200000     10.34000000
H      22.82500000     26.58800000     11.53800000
H      20.53700000     25.08800000     12.02200000
H      23.21600000     23.58600000     12.01300000
H      20.84000000     23.30620000     12.10980000
H      20.41860000     24.75590000      9.61080000
H      22.65850000     24.73010000     13.25090000
