13
pbedef2svp=-265.21132519737
N      31.83400000     28.41200000      5.12500000
C      31.22000000     27.34100000      4.27500000
N      26.33500000     27.77000000      3.25800000
C      26.91300000     26.63900000      3.53100000
O      27.88600000     26.46300000      4.26300000
H      32.82200000     28.45600000      5.27400000
H      30.13900000     27.52500000      4.18300000
H      31.21460000     29.08030000      5.53690000
H      31.38000000     26.42350000      4.86030000
H      31.66200000     27.28350000      3.26940000
H      25.55800000     27.80400000      2.63000000
H      26.67910000     28.60590000      3.68560000
H      26.45330000     25.76780000      3.04140000
