11
pbedef2svp=-118.86421034532 b3lypdef2svp=-118.95722196533 b3lypvdz=-119.0441937224
C      39.08000000     36.94100000     27.40600000
C      39.50200000     37.34000000     26.00200000
C      39.33700000     38.85400000     25.86200000
H      38.22400000     37.57700000     27.67600000
H      39.92700000     37.16400000     28.07100000
H      40.56300000     37.08500000     25.86300000
H      39.63800000     39.16400000     24.85000000
H      38.28400000     39.12500000     26.03100000
H      39.97000000     39.36200000     26.60500000
H      38.78220000     35.90080000     27.60410000
H      38.91040000     36.83880000     25.22170000
