14
pbedef2svp=-361.13623483537 b3lypdef2svp=-361.35627565643 b3lypvdz=-361.64189260412
N      39.65500000     34.33500000     11.28500000
C      39.67600000     35.54700000     12.07200000
C      40.67500000     35.52700000     13.20000000
O      40.81400000     36.52800000     13.91100000
C      39.80800000     32.99400000      9.23300000
C      39.83700000     34.27100000      9.99500000
O      40.16400000     35.32300000      9.34500000
H      39.48700000     33.47600000     11.76900000
H      39.91600000     36.39600000     11.41500000
H      40.65200000     33.09000000      8.53400000
H      38.68860000     35.73720000     12.51800000
H      41.20850000     34.58460000     13.39280000
H      40.03650000     32.07410000      9.79130000
H      38.94160000     32.85380000      8.56990000
