11
pbedef2svp=-118.86483478899 b3lypdef2svp=-118.95786818004 b3lypvdz=-119.04477394736
C      30.41600000     28.91200000     17.98000000
C      30.73800000     27.69300000     17.12200000
C      29.15100000     28.65500000     18.75500000
H      31.24500000     29.08800000     18.68100000
H      31.66200000     27.87700000     16.55400000
H      30.87500000     26.81500000     17.77000000
H      29.90900000     27.50700000     16.42300000
H      29.23500000     27.64100000     19.17300000
H      28.32300000     28.68600000     18.03100000
H      30.26450000     29.81400000     17.36890000
H      28.87000000     29.31810000     19.58640000
