13
pbedef2svp=-377.19612715317 b3lypdef2svp=-377.41874596813 b3lypvdz=-377.71676137851
C      41.94900000     34.07600000     15.84200000
O      42.82900000     34.00000000     16.73900000
N      40.64200000     33.91600000     16.11200000
C      40.22600000     33.71600000     17.50900000
C      40.44900000     32.27800000     17.94500000
O      39.93600000     31.33600000     17.31500000
N      41.18900000     32.08500000     19.03100000
H      39.96500000     33.93300000     15.37700000
H      40.79400000     34.38800000     18.16900000
H      42.24370000     34.21960000     14.79200000
H      39.16150000     33.98680000     17.56870000
H      41.37360000     31.17950000     19.41310000
H      41.61300000     32.82380000     19.55480000
