8
pbedef2svp=-79.6386003262 b3lypdef2svp=-79.70378440895 b3lypvdz=-79.76146874006
C      19.06500000     21.35200000     12.99900000
C      17.58600000     21.28200000     13.46100000
H      19.16200000     20.67100000     12.14100000
H      17.45300000     20.36800000     14.05800000
H      17.37700000     22.16200000     14.08700000
H      19.75590000     21.00360000     13.78080000
H      19.33720000     22.35760000     12.64600000
H      16.85880000     21.26470000     12.63590000
