10
pbedef2svp=-155.63493319737 b3lypdef2svp=-155.7464615001 b3lypvdz=-155.86585144351
C      21.44700000     27.86900000     16.02600000
C      20.63800000     26.73500000     16.05300000
C      19.67700000     26.53900000     15.05100000
C      19.59300000     27.46500000     14.02100000
H      20.75100000     26.00800000     16.84400000
H      19.01600000     25.68500000     15.08000000
H      18.91100000     27.27600000     13.20500000
H      22.20570000     28.00520000     16.81080000
H      21.35090000     28.61290000     15.22140000
H      20.19630000     28.38470000     14.00550000
