13
pbedef2svp=-323.0919771635 b3lypdef2svp=-323.29454488853 b3lypvdz=-323.5507055835
C      36.33400000     31.74200000     23.08700000
O      35.57400000     32.61800000     23.48300000
N      34.93000000     34.38400000     25.45100000
C      34.14500000     35.47200000     23.48100000
C      34.23900000     35.35300000     24.97900000
O      33.70700000     36.19700000     25.72800000
H      37.33660000     31.66700000     23.53330000
H      36.05440000     31.00370000     22.32100000
H      35.33500000     33.73400000     24.80800000
H      34.41100000     34.50500000     23.02800000
H      35.08630000     34.24190000     26.42840000
H      33.11810000     35.73870000     23.19050000
H      34.82450000     36.23770000     23.07850000
