17
pbedef2svp=-342.49521903214 b3lypdef2svp=-342.71281213134 b3lypvdz=-342.97727277608
N      37.49900000     25.74300000     14.57100000
C      38.79400000     25.76100000     13.88000000
C      38.72800000     26.59100000     12.61100000
O      39.70400000     27.34600000     12.27700000
N      37.63300000     26.54300000     11.86700000
C      37.47100000     27.39100000     10.66800000
C      36.19300000     27.05800000      9.91100000
H      36.99800000     24.88000000     14.63700000
H      39.53500000     26.22600000     14.54600000
H      36.89700000     25.91700000     12.12400000
H      38.32600000     27.22700000      9.99500000
H      35.33700000     27.21800000     10.58200000
H      36.11200000     27.73300000      9.04600000
H      37.10120000     26.56530000     14.97800000
H      39.14480000     24.74290000     13.65570000
H      37.44960000     28.45600000     10.94230000
H      36.16410000     26.01980000      9.54860000
