16
pbedef2svp=-362.32471094737 b3lypdef2svp=-362.55319127262 b3lypvdz=-362.83893056572
C      20.14200000     21.59000000     15.14900000
O      19.49900000     22.64500000     15.32100000
N      19.99300000     20.88400000     14.04900000
C      22.92400000     18.58300000     12.02500000
C      22.22900000     18.24400000     13.32500000
O      20.96300000     18.25300000     13.39500000
C      23.05900000     17.32600000     11.15400000
H      20.50600000     20.03400000     13.92400000
H      20.82360000     21.26920000     15.95060000
H      19.36490000     21.20080000     13.33830000
H      22.28300000     19.29200000     11.48000000
H      22.06600000     16.87100000     11.02100000
H      23.46700000     17.60900000     10.17200000
H      23.89930000     19.06470000     12.18880000
H      22.86870000     18.02250000     14.19200000
H      23.73100000     16.59430000     11.62630000
