7
pbedef2svp=-95.63899096957 b3lypdef2svp=-95.7084880404 b3lypvdz=-95.7798221607
N      21.67400000     30.03400000      8.19100000
C      21.41900000     30.25300000      9.62000000
H      22.02400000     29.14200000      7.90400000
H      20.41000000     30.65000000      9.80700000
H      21.51690000     30.72820000      7.48850000
H      22.19030000     30.94610000      9.98680000
H      21.57530000     29.29940000     10.14560000
