15
pbedef2svp=-233.14410454362
C      36.33400000     31.74200000     23.08700000
O      35.57400000     32.61800000     23.48300000
C      35.92600000     35.97900000     21.73700000
C      34.14500000     35.47200000     23.48100000
C      35.11400000     36.56400000     22.90700000
H      37.33660000     31.66700000     23.53330000
H      36.05440000     31.00370000     22.32100000
H      36.73600000     35.36100000     22.15200000
H      34.41100000     34.50500000     23.02800000
H      34.52600000     37.42200000     22.55000000
H      35.80200000     36.89500000     23.69900000
H      35.25950000     35.33270000     21.14700000
H      36.36930000     36.78820000     21.13810000
H      33.11810000     35.73870000     23.19050000
H      34.21370000     35.38510000     24.57540000
