9
pbedef2svp=-208.75365986878 b3lypdef2svp=-208.88533977999 b3lypvdz=-209.04990165185
N      19.17200000     29.80800000     21.24300000
C      19.39900000     29.89400000     22.65500000
C      20.08300000     28.72900000     23.32100000
O      19.99100000     28.58400000     24.56100000
H      19.62500000     30.50400000     20.68600000
H      20.01700000     30.78600000     22.83600000
H      18.42000000     30.02200000     23.13900000
H      18.61950000     29.14180000     20.74200000
H      20.68800000     28.05660000     22.69500000
