14
pbedef2svp=-249.15471685696 b3lypdef2svp=-249.32241965268 b3lypvdz=-249.51603446558
C      27.47500000     33.65100000     18.30400000
O      27.50700000     32.58700000     18.95800000
N      26.43600000     30.23200000     20.00400000
C      25.03400000     30.17000000     20.40100000
C      24.63900000     31.42600000     21.28600000
H      26.54180000     33.99370000     17.83310000
H      28.34830000     34.31300000     18.20840000
H      26.73800000     30.99700000     19.43500000
H      24.85900000     29.26400000     21.00000000
H      24.67100000     32.30400000     20.62400000
H      27.10910000     29.54380000     20.27480000
H      24.36060000     30.15480000     19.53130000
H      25.35980000     31.60060000     22.09840000
H      23.60990000     31.34340000     21.66570000
