14
pbedef2svp=-307.02981355587
C      36.67100000     34.29600000     27.08900000
O      37.30500000     33.23300000     26.79500000
C      36.33400000     31.74200000     23.08700000
O      35.57400000     32.61800000     23.48300000
C      38.52800000     32.85400000     23.18200000
C      37.73800000     31.63700000     23.71200000
H      35.58340000     34.20810000     26.95000000
H      37.11890000     35.23360000     27.45010000
H      38.63400000     32.78100000     22.09000000
H      37.99600000     33.78200000     23.43800000
H      37.65300000     31.71100000     24.80600000
H      36.05440000     31.00370000     22.32100000
H      39.52240000     32.85400000     23.65240000
H      38.24310000     30.69940000     23.43680000
