15
pbedef2svp=-233.1592034247
C      25.03400000     30.17000000     20.40100000
C      24.63900000     31.42600000     21.28600000
C      25.34900000     26.87200000     23.64300000
C      25.74300000     25.58600000     22.92200000
O      25.32500000     24.48900000     23.37800000
H      24.85900000     29.26400000     21.00000000
H      24.67100000     32.30400000     20.62400000
H      26.09140000     30.21680000     20.10160000
H      24.36060000     30.15480000     19.53130000
H      25.35980000     31.60060000     22.09840000
H      23.60990000     31.34340000     21.66570000
H      25.55800000     27.73800000     22.99800000
H      24.26500000     26.76500000     23.79650000
H      25.87450000     26.98350000     24.60290000
H      26.34900000     25.67240000     22.00800000
