8
pbedef2svp=-79.63895909509 b3lypdef2svp=-79.70414210409 b3lypvdz=-79.76184934697
C      39.67600000     35.54700000     12.07200000
C      38.29000000     35.81400000     12.69800000
H      39.91600000     36.39600000     11.41500000
H      38.04100000     34.96600000     13.35300000
H      38.35600000     36.73400000     13.29800000
H      39.66000000     34.62450000     11.47300000
H      40.40520000     35.53240000     12.89540000
H      37.47370000     35.93710000     11.97100000
