11
pbedef2svp=-321.91119909748 b3lypdef2svp=-322.10365918379 b3lypvdz=-322.36011207272
C      29.27900000     23.22700000      5.64100000
O      28.47800000     23.52200000      4.72500000
C      31.44000000     26.07900000      5.08000000
O      32.57600000     25.80200000      5.46100000
N      30.31000000     25.45800000      5.38400000
C      30.28800000     24.24500000      6.19300000
H      29.44600000     25.83300000      5.04800000
H      31.28700000     23.78400000      6.19600000
H      29.36350000     22.24810000      6.13550000
H      31.28000000     26.99650000      4.49470000
H      30.01650000     24.48820000      7.23090000
