5
pbedef2svp=-189.41061191422 b3lypdef2svp=-189.52213190448 b3lypvdz=-189.67533323249
C      37.56100000     18.85100000     18.08200000
O      37.75800000     18.02400000     17.19500000
O      37.62800000     18.59900000     19.31300000
H      37.85100000     17.68400000     19.43800000
H      37.24770000     19.89440000     17.93000000
