10
pbedef2svp=-155.63423069898 b3lypdef2svp=-155.74555274287 b3lypvdz=-155.86494120837
C      22.94500000     21.95100000     17.78500000
C      24.27200000     21.54400000     17.64400000
C      22.43700000     22.15700000     19.06500000
C      25.05200000     21.28500000     18.77600000
H      24.69800000     21.42900000     16.65800000
H      21.42600000     22.51800000     19.18200000
H      26.07000000     20.94100000     18.66600000
H      22.31860000     22.17170000     16.90810000
H      23.04570000     21.95860000     19.95950000
H      24.62430000     21.43290000     19.77860000
