8
pbedef2svp=-79.63643390471 b3lypdef2svp=-79.70159075819 b3lypvdz=-79.75920509826
C      30.41600000     28.91200000     17.98000000
C      29.15100000     28.65500000     18.75500000
H      31.24500000     29.08800000     18.68100000
H      29.23500000     27.64100000     19.17300000
H      28.32300000     28.68600000     18.03100000
H      30.64830000     28.03280000     17.36110000
H      30.26450000     29.81400000     17.36890000
H      28.87000000     29.31810000     19.58640000
