16
pbedef2svp=-362.33220215096
O      25.32500000     24.48900000     23.37800000
C      25.34900000     26.87200000     23.64300000
C      25.74300000     25.58600000     22.92200000
N      26.46500000     25.68900000     21.83300000
C      25.03400000     30.17000000     20.40100000
C      24.10100000     30.14900000     19.19600000
O      24.19600000     30.94800000     18.28700000
H      25.55800000     27.73800000     22.99800000
H      26.78200000     26.59400000     21.54900000
H      24.26500000     26.76500000     23.79650000
H      25.87450000     26.98350000     24.60290000
H      26.71010000     24.89590000     21.27550000
H      24.85900000     29.26400000     21.00000000
H      26.09140000     30.21680000     20.10160000
H      24.76010000     31.04090000     21.01460000
H      23.32440000     29.37080000     19.23240000
