18
pbedef2svp=-326.47804517469 b3lypdef2svp=-326.6916530856 b3lypvdz=-326.94226138698
C      32.99500000     35.88300000      9.93400000
C      33.30600000     34.38100000      9.84000000
C      29.54200000     39.02000000     10.65300000
C      30.49400000     38.26100000      9.72900000
O      30.84900000     38.85000000      8.70600000
N      30.79500000     37.01500000     10.09500000
C      31.72000000     36.28900000      9.17600000
H      33.82000000     36.38500000      9.40700000
H      32.43400000     33.80800000     10.18800000
H      33.52200000     34.12000000      8.79300000
H      29.47700000     38.47800000     11.60800000
H      30.42700000     36.59700000     10.92600000
H      32.03600000     37.01200000      8.41000000
H      33.07410000     36.22850000     10.97530000
H      34.17690000     34.13080000     10.46360000
H      30.00500000     40.00260000     10.82670000
H      28.53770000     39.04040000     10.20460000
H      31.16040000     35.50050000      8.65150000
