14
pbedef2svp=-361.14188484808 b3lypdef2svp=-361.36446723178 b3lypvdz=-361.64920388358
C      37.73800000     31.63700000     23.71200000
C      36.33400000     31.74200000     23.08700000
O      35.57400000     32.61800000     23.48300000
N      36.00000000     30.86000000     22.17200000
C      34.73800000     30.87500000     21.47300000
C      33.58900000     30.18900000     22.18100000
O      33.58000000     29.00900000     22.49900000
H      37.65300000     31.71100000     24.80600000
H      36.65600000     30.13900000     21.94800000
H      34.44500000     31.92400000     21.31900000
H      38.24310000     30.69940000     23.43680000
H      38.30060000     32.50360000     23.33460000
H      34.83590000     30.42250000     20.47520000
H      32.67090000     30.79060000     22.25370000
