9
pbedef2svp=-208.80945641014 b3lypdef2svp=-208.93993885453 b3lypvdz=-209.10342526866
N      26.43600000     30.23200000     20.00400000
C      28.76200000     29.57300000     19.90600000
C      27.33100000     29.31700000     20.36400000
O      27.10100000     28.34600000     21.09700000
H      26.73800000     30.99700000     19.43500000
H      28.81600000     30.60900000     19.54100000
H      25.47470000     30.18950000     20.27620000
H      29.45240000     29.47150000     20.75640000
H      29.04300000     28.90990000     19.07460000
