8
pbedef2svp=-79.63831069379 b3lypdef2svp=-79.70348967635 b3lypvdz=-79.76120264698
C      32.63100000     29.44400000      9.06000000
C      31.94500000     29.44900000     10.43600000
H      33.02000000     28.42800000      8.89700000
H      32.69500000     29.27400000     11.22100000
H      31.46200000     30.42300000     10.60100000
H      31.18600000     28.65300000     10.47000000
H      31.84380000     29.62220000      8.31260000
H      33.48990000     30.13090000      9.03820000
