6
pbedef2svp=-115.48471566886 b3lypdef2svp=-115.56326362402 b3lypvdz=-115.65413183369
C      28.52300000     15.82000000      8.18200000
O      28.94600000     16.44500000      6.96700000
H      29.36700000     15.25300000      8.60200000
H      27.69400000     15.13200000      7.95800000
H      29.23100000     15.78000000      6.35100000
H      28.18330000     16.55510000      8.92650000
