11
pbedef2svp=-118.86765241885 b3lypdef2svp=-118.96075038397 b3lypvdz=-119.0475952467
C      36.73100000     30.57000000     12.64500000
C      35.70800000     30.77600000     13.80600000
C      35.87400000     32.13800000     14.51200000
H      36.42300000     31.20600000     11.80200000
H      35.89000000     29.98800000     14.55100000
H      35.13000000     32.22700000     15.31700000
H      36.88600000     32.20900000     14.93800000
H      35.72500000     32.94900000     13.78400000
H      36.79070000     29.52500000     12.30690000
H      37.74640000     30.86450000     12.94880000
H      34.66770000     30.67340000     13.46370000
