13
pbedef2svp=-174.10494781264 b3lypdef2svp=-174.23020710446 b3lypvdz=-174.36160952078
C      36.35100000     33.61300000      7.83800000
C      36.32200000     32.94400000      6.47700000
N      35.76800000     33.94500000      5.48900000
C      37.22000000     32.82200000      8.82700000
H      35.32500000     33.67300000      8.23000000
H      36.76200000     34.62700000      7.73100000
H      37.34000000     32.64900000      6.18200000
H      35.67700000     32.05300000      6.51000000
H      35.73600000     33.53300000      4.57900000
H      34.84500000     34.21200000      5.76700000
H      36.84100000     31.79300000      8.91200000
H      37.19200000     33.30600000      9.81400000
H      38.25370000     32.80640000      8.45130000
