16
pbedef2svp=-362.32030527507 b3lypdef2svp=-362.55100022771 b3lypvdz=-362.8360585321
C      29.94200000     21.10600000     21.24000000
O      29.47000000     20.67700000     20.19000000
C      31.56800000     16.96200000     19.82500000
C      30.32000000     16.69800000     19.05100000
O      30.19800000     15.65700000     18.36600000
N      29.34000000     17.59400000     19.07600000
C      28.10800000     17.43900000     18.27600000
H      29.26390000     21.50910000     22.00660000
H      31.02640000     21.09260000     21.42400000
H      32.42200000     16.80400000     19.15000000
H      31.61200000     16.23500000     20.64900000
H      29.44000000     18.40200000     19.65700000
H      27.85100000     16.37300000     18.19200000
H      31.66420000     17.96840000     20.25840000
H      28.30110000     17.84390000     17.27160000
H      27.25840000     17.97950000     18.71880000
