7
pbedef2svp=-95.63928470819 b3lypdef2svp=-95.70876083919 b3lypvdz=-95.78014691689
N      29.59900000     18.59900000      9.82800000
C      30.79600000     19.08300000     10.56600000
H      29.07000000     19.20900000      9.23800000
H      31.64900000     18.41000000     10.39300000
H      29.34350000     17.63930000      9.94490000
H      30.57340000     19.14070000     11.64170000
H      31.04840000     20.08980000     10.20180000
