14
pbedef2svp=-249.16073405749
N      27.75100000     35.86700000     13.74000000
C      27.69100000     37.31500000     14.14300000
C      30.45900000     40.66600000     12.13000000
O      30.25300000     39.99100000     13.13300000
C      31.19100000     42.01200000     12.33100000
H      27.09800000     35.21600000     14.12700000
H      28.13900000     37.93800000     13.35500000
H      28.44000000     35.55160000     13.08750000
H      28.26010000     37.43200000     15.07710000
H      26.63020000     37.58090000     14.26120000
H      31.04300000     42.64100000     11.44100000
H      30.21240000     40.39270000     11.09340000
H      30.71680000     42.47330000     13.20980000
H      32.26270000     41.79850000     12.45690000
