15
pbedef2svp=-378.38116439762 b3lypdef2svp=-378.61401716758 b3lypvdz=-378.9107953356
N      25.62100000     32.94500000     16.95000000
C      25.69800000     32.87600000     15.66900000
O      26.15800000     33.73000000     14.89400000
N      23.14100000     29.18700000     19.24100000
C      22.12600000     29.06200000     18.18300000
C      24.10100000     30.14900000     19.19600000
O      24.19600000     30.94800000     18.28700000
H      25.18900000     32.20800000     17.47000000
H      25.99730000     33.74220000     17.42210000
H      25.30670000     31.97290000     15.17790000
H      23.12400000     28.54900000     20.01100000
H      21.95700000     30.04300000     17.71400000
H      21.20430000     28.75290000     18.69770000
H      22.39300000     28.33290000     17.40380000
H      24.77440000     30.16420000     20.06570000
