15
pbedef2svp=-378.38349971209 b3lypdef2svp=-378.61646030762 b3lypvdz=-378.9130770679
O      32.57600000     25.80200000      5.46100000
C      30.28800000     24.24500000      6.19300000
N      30.31000000     25.45800000      5.38400000
C      31.44000000     26.07900000      5.08000000
N      26.33500000     27.77000000      3.25800000
C      26.91300000     26.63900000      3.53100000
O      27.88600000     26.46300000      4.26300000
H      31.28700000     23.78400000      6.19600000
H      29.44600000     25.83300000      5.04800000
H      29.56540000     23.51590000      5.79770000
H      30.01650000     24.48820000      7.23090000
H      31.28000000     26.99650000      4.49470000
H      25.55800000     27.80400000      2.63000000
H      26.67910000     28.60590000      3.68560000
H      26.45330000     25.76780000      3.04140000
