8
pbedef2svp=-79.6370569183 b3lypdef2svp=-79.70221997609 b3lypvdz=-79.75981084717
C      31.20000000     30.32900000     22.78000000
C      30.84700000     30.93100000     24.11800000
H      31.35500000     29.25000000     22.92500000
H      31.49100000     30.45600000     24.87200000
H      31.07600000     32.00600000     24.06500000
H      32.13930000     30.76110000     22.40440000
H      30.48030000     30.45990000     21.95850000
H      29.80790000     30.83320000     24.46560000
