13
pbedef2svp=-377.19457818234 b3lypdef2svp=-377.41751298726 b3lypvdz=-377.71527706291
C      21.12700000     28.24000000      5.57400000
O      19.95800000     28.46500000      5.84200000
N      22.09900000     29.16300000      5.60500000
C      21.90700000     30.56300000      5.88100000
C      21.46600000     30.95300000      7.26100000
O      21.06600000     32.11200000      7.53300000
N      21.67400000     30.03400000      8.19100000
H      23.03200000     28.85400000      5.42200000
H      22.89500000     31.02900000      5.75500000
H      22.02400000     29.14200000      7.90400000
H      21.50810000     27.23660000      5.33340000
H      21.28200000     31.02960000      5.10540000
H      21.50030000     30.18320000      9.16440000
