18
pbedef2svp=-326.48177935202 b3lypdef2svp=-326.69460611701 b3lypvdz=-326.94550619404
C      31.20000000     30.32900000     22.78000000
C      30.21000000     30.50900000     21.65000000
O      29.97800000     31.72600000     21.26900000
C      30.84700000     30.93100000     24.11800000
N      29.69400000     29.43600000     21.05400000
C      28.76200000     29.57300000     19.90600000
C      29.15100000     28.65500000     18.75500000
H      31.35500000     29.25000000     22.92500000
H      31.49100000     30.45600000     24.87200000
H      31.07600000     32.00600000     24.06500000
H      29.93800000     28.52400000     21.38400000
H      28.81600000     30.60900000     19.54100000
H      29.23500000     27.64100000     19.17300000
H      28.32300000     28.68600000     18.03100000
H      32.13930000     30.76110000     22.40440000
H      29.80790000     30.83320000     24.46560000
H      27.72920000     29.38820000     20.23650000
H      30.07520000     28.84280000     18.18880000
