20
pbedef2svp=-364.64217966796
N      33.54800000     21.52600000     16.95000000
C      35.03100000     21.72200000     17.06900000
C      32.12800000     19.36400000     19.75000000
O      32.54600000     19.31700000     18.55800000
O      33.77800000     18.73900000     14.51600000
C      31.39800000     19.06400000     14.28600000
C      32.49200000     18.19300000     14.99500000
H      33.14600000     20.63400000     17.15600000
H      35.24600000     22.46200000     17.85400000
H      32.95960000     22.28290000     16.66570000
H      35.45680000     22.06320000     16.11390000
H      35.48830000     20.75920000     17.34080000
H      32.22500000     20.30980000     20.30330000
H      31.76700000     18.48210000     20.29940000
H      34.49400000     18.25400000     14.90900000
H      30.40500000     18.73500000     14.62700000
H      32.40300000     18.31600000     16.08500000
H      31.48330000     18.96650000     13.19370000
H      31.53670000     20.12320000     14.54850000
H      32.39220000     17.12890000     14.73480000
