7
pbedef2svp=-95.63887537925 b3lypdef2svp=-95.70835143543 b3lypvdz=-95.77976767515
N      33.54800000     21.52600000     16.95000000
C      35.03100000     21.72200000     17.06900000
H      33.14600000     20.63400000     17.15600000
H      35.24600000     22.46200000     17.85400000
H      32.95960000     22.28290000     16.66570000
H      35.45680000     22.06320000     16.11390000
H      35.48830000     20.75920000     17.34080000
