18
pbedef2svp=-272.39248839721
C      21.55000000     26.79600000     23.13300000
C      23.04600000     27.08700000     22.91300000
O      23.38300000     27.62700000     21.87000000
C      23.18100000     31.30900000     21.82400000
C      25.03400000     30.17000000     20.40100000
C      24.63900000     31.42600000     21.28600000
H      21.34400000     26.67500000     24.20700000
H      20.98910000     27.64600000     22.71730000
H      21.32540000     25.86490000     22.59200000
H      23.74860000     26.78370000     23.70320000
H      22.94200000     32.19400000     22.43200000
H      22.48200000     31.24600000     20.97700000
H      23.09000000     30.40400000     22.44300000
H      24.85900000     29.26400000     21.00000000
H      24.67100000     32.30400000     20.62400000
H      26.09140000     30.21680000     20.10160000
H      24.36060000     30.15480000     19.53130000
H      25.35980000     31.60060000     22.09840000
