15
pbedef2svp=-233.16558689973
C      38.79400000     25.76100000     13.88000000
C      39.28500000     24.33600000     13.56600000
C      35.59000000     21.94500000     13.30200000
C      35.23800000     23.38200000     12.92000000
O      36.06600000     24.10900000     12.33300000
H      39.53500000     26.22600000     14.54600000
H      40.25500000     24.38700000     13.05000000
H      39.39800000     23.77200000     14.50400000
H      38.55200000     23.83000000     12.92000000
H      37.82360000     25.74750000     14.39780000
H      38.74620000     26.36250000     12.96030000
H      36.68700000     21.87000000     13.28900000
H      35.25210000     21.70450000     14.32080000
H      35.21250000     21.23590000     12.55060000
H      34.21620000     23.68330000     13.19390000
