17
pbedef2svp=-342.48894513923 b3lypdef2svp=-342.70616841283 b3lypvdz=-342.9704976942
N      39.65500000     34.33500000     11.28500000
C      39.67600000     35.54700000     12.07200000
C      38.29000000     35.81400000     12.69800000
N      40.11700000     31.75000000      9.98800000
C      39.80800000     32.99400000      9.23300000
C      39.83700000     34.27100000      9.99500000
O      40.16400000     35.32300000      9.34500000
H      39.48700000     33.47600000     11.76900000
H      39.91600000     36.39600000     11.41500000
H      38.04100000     34.96600000     13.35300000
H      38.35600000     36.73400000     13.29800000
H      39.41000000     31.24600000     10.48500000
H      40.65200000     33.09000000      8.53400000
H      40.40520000     35.53240000     12.89540000
H      37.47370000     35.93710000     11.97100000
H      41.06890000     31.44410000      9.97240000
H      38.94160000     32.85380000      8.56990000
