17
pbedef2svp=-346.23533824292
C      26.88200000     31.42800000      7.86200000
O      27.90600000     31.71100000      7.26400000
C      31.67700000     30.27500000      6.63900000
C      31.02200000     29.28800000      5.66500000
O      29.80900000     29.39500000      5.54500000
C      31.56200000     29.68600000      8.04500000
C      32.63100000     29.44400000      9.06000000
H      26.42530000     30.46100000      7.60440000
H      26.32170000     31.98910000      8.62440000
H      32.72700000     30.46400000      6.36900000
H      30.84400000     30.34400000      8.55700000
H      31.10600000     28.69700000      7.88900000
H      33.02000000     28.42800000      8.89700000
H      31.07410000     31.19490000      6.65950000
H      31.70340000     28.55290000      5.21190000
H      33.48990000     30.13090000      9.03820000
H      32.14020000     29.44760000     10.04440000
