16
pbedef2svp=-362.32662899759
C      20.08300000     28.72900000     23.32100000
O      19.99100000     28.58400000     24.56100000
N      20.80100000     27.93100000     22.57800000
C      22.12600000     29.06200000     18.18300000
C      20.83500000     28.62900000     18.90400000
O      20.82100000     27.73400000     19.74900000
C      22.49400000     28.05700000     17.10900000
H      20.84300000     28.09900000     21.59300000
H      19.58350000     29.57980000     22.83460000
H      21.31100000     27.15820000     22.95590000
H      21.95700000     30.04300000     17.71400000
H      23.42500000     28.39400000     16.63000000
H      22.66300000     27.08400000     17.59400000
H      22.88480000     29.15540000     18.97390000
H      19.97480000     29.25760000     18.63040000
H      21.73530000     27.92080000     16.32420000
