13
pbedef2svp=-323.03253409883 b3lypdef2svp=-323.23606994504 b3lypvdz=-323.4934225282
C      38.42100000     28.04800000     21.34100000
O      37.21300000     28.03600000     21.70400000
C      34.73800000     30.87500000     21.47300000
C      33.58900000     30.18900000     22.18100000
O      33.58000000     29.00900000     22.49900000
N      36.00000000     30.86000000     22.17200000
H      38.71040000     28.02750000     20.27990000
H      39.22070000     28.08320000     22.09540000
H      34.44500000     31.92400000     21.31900000
H      36.65600000     30.13900000     21.94800000
H      34.83590000     30.42250000     20.47520000
H      32.67090000     30.79060000     22.25370000
H      36.25420000     31.53120000     22.86830000
