18
pbedef2svp=-272.3622807483
O      22.49500000     34.69000000     10.58900000
C      23.21200000     32.76200000     11.89100000
C      22.69900000     34.26700000     11.98500000
C      25.69500000     34.49800000      8.94600000
C      25.28800000     34.60900000      7.49900000
C      24.14700000     33.96600000      7.03800000
H      22.18600000     35.58800000     10.57200000
H      24.14700000     32.76300000     11.31200000
H      21.74500000     34.28200000     12.53300000
H      22.48450000     32.09600000     11.40400000
H      23.42580000     32.37470000     12.89810000
H      23.43720000     34.88740000     12.51420000
H      24.80600000     34.23900000      9.53900000
H      26.08400000     35.47300000      9.27400000
H      23.51900000     33.41800000      7.72500000
H      26.46770000     33.73610000      9.12610000
H      25.94760000     35.18220000      6.83090000
H      23.88440000     34.01700000      5.97100000
