9
pbedef2svp=-208.79805642555 b3lypdef2svp=-208.92860324496 b3lypvdz=-209.09155559761
N      31.11300000     20.86300000     15.86000000
C      31.28800000     22.20100000     16.41700000
C      31.59300000     20.55300000     14.65500000
O      32.15900000     21.31100000     13.86100000
H      30.62600000     20.16900000     16.39000000
H      30.85300000     22.93800000     15.72600000
H      32.35780000     22.42960000     16.53200000
H      30.74430000     22.27110000     17.37060000
H      31.45430000     19.49380000     14.39250000
