12
pbedef2svp=-247.98647223336 b3lypdef2svp=-248.14639142781 b3lypvdz=-248.33961090015
N      26.43600000     30.23200000     20.00400000
C      25.03400000     30.17000000     20.40100000
C      24.10100000     30.14900000     19.19600000
O      24.19600000     30.94800000     18.28700000
C      24.63900000     31.42600000     21.28600000
H      26.73800000     30.99700000     19.43500000
H      24.85900000     29.26400000     21.00000000
H      24.67100000     32.30400000     20.62400000
H      27.10910000     29.54380000     20.27480000
H      23.32440000     29.37080000     19.23240000
H      25.35980000     31.60060000     22.09840000
H      23.60990000     31.34340000     21.66570000
