6
pbedef2svp=-169.5702483512 b3lypdef2svp=-169.67204126742 b3lypvdz=-169.80670695909
C      38.42100000     28.04800000     21.34100000
O      37.21300000     28.03600000     21.70400000
N      39.37400000     28.09000000     22.24000000
H      40.32700000     28.14100000     21.94300000
H      38.71040000     28.02750000     20.27990000
H      39.16500000     28.07190000     23.21770000
