6
pbedef2svp=-169.56991133397 b3lypdef2svp=-169.67171582202 b3lypvdz=-169.80614762893
C      40.16800000     30.02600000     19.91800000
O      39.26400000     30.66200000     20.52100000
N      40.05900000     28.75800000     19.60700000
H      41.10530000     30.55160000     19.68310000
H      39.21520000     28.25660000     19.79860000
H      40.71650000     28.18600000     19.11660000
