11
pbedef2svp=-209.9151943004 b3lypdef2svp=-210.05533889981 b3lypvdz=-210.21967795985
C      28.63800000     35.46100000     12.90000000
O      29.52200000     36.10300000     12.32000000
N      30.79500000     37.01500000     10.09500000
C      31.72000000     36.28900000      9.17600000
H      28.61460000     34.39800000     12.61790000
H      27.88010000     35.80790000     13.61780000
H      30.42700000     36.59700000     10.92600000
H      32.03600000     37.01200000      8.41000000
H      30.56920000     37.94970000      9.82040000
H      31.16040000     35.50050000      8.65150000
H      32.63200000     35.99860000      9.71820000
