6
pbedef2svp=-115.48467919346 b3lypdef2svp=-115.56324069674 b3lypvdz=-115.65421933711
C      21.63700000     28.92300000     10.35300000
O      20.54400000     28.04700000     10.05900000
H      22.57800000     28.46500000     10.01500000
H      21.68500000     29.10200000     11.43700000
H      20.74700000     27.53500000      9.28500000
H      21.48070000     29.87660000      9.82740000
