5
pbedef2svp=-40.41213408063 b3lypdef2svp=-40.44886690021 b3lypvdz=-40.4774250881
C      32.26200000     20.67000000     20.51400000
H      32.31500000     21.45700000     19.74700000
H      31.48610000     20.98670000     21.22650000
H      32.16500000     19.72420000     19.96070000
H      33.23390000     20.70250000     21.02820000
