13
pbedef2svp=-269.00116872442
C      26.54100000     18.73200000      9.25100000
O      26.33300000     18.53600000     10.45700000
C      27.29900000     17.05500000     13.53300000
O      25.92500000     16.61100000     13.91300000
C      28.23600000     15.86400000     13.55800000
H      26.02170000     19.52920000      8.69890000
H      27.22310000     18.08900000      8.67540000
H      27.28300000     17.48700000     12.52200000
H      25.65000000     15.90600000     13.33900000
H      27.93200000     15.14100000     12.78700000
H      29.26400000     16.20200000     13.35900000
H      28.19300000     15.38400000     14.54700000
H      27.49310000     17.85740000     14.25990000
