25
pbedef2svp=-276.91417862765 b3lypdef2svp=-277.13040731981 b3lypvdz=-277.33424763322
C      28.11300000     39.04900000     10.01500000
C      27.58800000     37.63500000      9.71500000
C      30.09100000     34.39300000      5.07800000
C      29.42000000     35.75600000      5.11900000
C      26.13600000     35.34600000      6.64000000
C      25.69500000     34.49800000      8.94600000
C      25.28800000     34.60900000      7.49900000
H      28.15100000     39.62800000      9.08100000
H      26.58500000     37.70300000      9.26900000
H      28.26800000     37.13300000      9.01200000
H      27.53600000     37.05800000     10.65000000
H      29.11730000     39.02860000     10.46340000
H      27.48210000     39.55870000     10.75800000
H      29.47000000     33.64700000      4.56000000
H      29.15200000     36.06400000      4.09800000
H      28.51000000     35.69800000      5.73500000
H      30.11200000     36.49200000      5.55400000
H      30.37980000     34.03800000      6.07830000
H      31.09520000     34.48230000      4.63800000
H      27.00600000     35.85800000      7.02300000
H      24.80600000     34.23900000      9.53900000
H      26.08400000     35.47300000      9.27400000
H      25.88200000     35.38180000      5.57030000
H      26.46770000     33.73610000      9.12610000
H      24.38410000     34.09960000      7.13380000
