19
pbedef2svp=-347.43366389996
C      34.44100000     26.09900000     13.68400000
O      34.88300000     27.09000000     13.09300000
C      36.08300000     30.19400000     17.87500000
O      35.04800000     29.70200000     17.39300000
C      36.73100000     30.57000000     12.64500000
C      35.70800000     30.77600000     13.80600000
C      34.22800000     30.63000000     13.31900000
H      33.78620000     25.37640000     13.17490000
H      34.68380000     25.86950000     14.73200000
H      36.03110000     30.68130000     18.85980000
H      37.04120000     30.13710000     17.33770000
H      36.42300000     31.20600000     11.80200000
H      35.89000000     29.98800000     14.55100000
H      33.94700000     31.51600000     12.73100000
H      34.13500000     29.73000000     12.69300000
H      36.79070000     29.52500000     12.30690000
H      37.74640000     30.86450000     12.94880000
H      35.82630000     31.74690000     14.30930000
H      33.56150000     30.54100000     14.18960000
