18
pbedef2svp=-326.43958559797
C      30.95500000     35.21100000      8.45900000
O      30.02500000     34.61800000      9.04000000
N      31.24400000     34.98600000      7.19700000
C      26.13600000     35.34600000      6.64000000
C      26.77200000     33.43600000      9.19700000
C      25.69500000     34.49800000      8.94600000
C      25.28800000     34.60900000      7.49900000
H      31.93100000     35.53000000      6.71500000
H      31.51460000     35.99950000      8.98350000
H      30.74910000     34.24800000      6.73830000
H      27.00600000     35.85800000      7.02300000
H      27.66100000     33.67200000      8.59400000
H      24.80600000     34.23900000      9.53900000
H      26.08400000     35.47300000      9.27400000
H      25.88200000     35.38180000      5.57030000
H      26.36600000     32.46180000      8.88710000
H      27.04930000     33.38190000     10.26010000
H      24.38410000     34.09960000      7.13380000
