15
pbedef2svp=-378.38552135401
N      31.69700000     18.31100000     20.40600000
C      32.26200000     20.67000000     20.51400000
C      32.12800000     19.36400000     19.75000000
O      32.54600000     19.31700000     18.55800000
N      31.11300000     20.86300000     15.86000000
C      31.59300000     20.55300000     14.65500000
O      32.15900000     21.31100000     13.86100000
H      31.43900000     18.43200000     21.36400000
H      32.31500000     21.45700000     19.74700000
H      31.60950000     17.39610000     20.01200000
H      31.48610000     20.98670000     21.22650000
H      33.23390000     20.70250000     21.02820000
H      30.62600000     20.16900000     16.39000000
H      31.23290000     21.77950000     16.24150000
H      31.45430000     19.49380000     14.39250000
