6
pbedef2svp=-169.57461328709 b3lypdef2svp=-169.67642751956 b3lypvdz=-169.81088750091
N      30.99100000     42.57100000     17.99800000
C      30.07500000     42.53800000     18.98400000
O      29.58600000     43.57000000     19.48300000
H      31.36100000     41.73700000     17.58800000
H      31.27780000     43.48210000     17.70190000
H      29.73530000     41.55230000     19.33460000
