9
pbedef2svp=-208.79579949159 b3lypdef2svp=-208.92588054283 b3lypvdz=-209.08912934637
C      35.59000000     21.94500000     13.30200000
N      35.13900000     21.62400000     14.66200000
C      35.61500000     22.19000000     15.75900000
O      36.53200000     23.04600000     15.72400000
H      36.68700000     21.87000000     13.28900000
H      34.42500000     20.93200000     14.76600000
H      35.33660000     22.97950000     13.02700000
H      35.21250000     21.23590000     12.55060000
H      35.18920000     21.84880000     16.71410000
