18
pbedef2svp=-326.4899021867 b3lypdef2svp=-326.70463017056 b3lypvdz=-326.95496928041
O      23.57900000     31.32100000      9.55400000
N      22.24100000     31.87300000     11.24100000
C      23.21200000     32.76200000     11.89100000
C      22.69900000     34.26700000     11.98500000
C      23.72700000     35.13100000     12.72200000
C      21.41900000     30.25300000      9.62000000
C      22.50400000     31.22800000     10.13600000
H      21.34100000     31.75600000     11.66200000
H      24.14700000     32.76300000     11.31200000
H      21.74500000     34.28200000     12.53300000
H      23.36200000     36.16700000     12.78000000
H      23.87600000     34.73700000     13.73800000
H      24.68200000     35.10900000     12.17700000
H      20.41000000     30.65000000      9.80700000
H      23.42580000     32.37470000     12.89810000
H      22.54660000     34.58290000     10.94240000
H      21.61010000     30.08890000      8.54920000
H      21.57530000     29.29940000     10.14560000
