15
pbedef2svp=-378.33332260425 b3lypdef2svp=-378.56815132961 b3lypvdz=-378.86591317571
N      25.62100000     32.94500000     16.95000000
C      25.69800000     32.87600000     15.66900000
O      26.15800000     33.73000000     14.89400000
N      26.43600000     30.23200000     20.00400000
C      25.03400000     30.17000000     20.40100000
C      24.10100000     30.14900000     19.19600000
O      24.19600000     30.94800000     18.28700000
H      25.18900000     32.20800000     17.47000000
H      25.99730000     33.74220000     17.42210000
H      25.30670000     31.97290000     15.17790000
H      26.73800000     30.99700000     19.43500000
H      24.85900000     29.26400000     21.00000000
H      27.10910000     29.54380000     20.27480000
H      24.76010000     31.04090000     21.01460000
H      23.32440000     29.37080000     19.23240000
