10
pbedef2svp=-192.74769364347 b3lypdef2svp=-192.87568343544 b3lypvdz=-193.02660061792
C      26.26600000     25.41300000      2.84200000
C      26.91300000     26.63900000      3.53100000
O      27.88600000     26.46300000      4.26300000
C      25.11200000     24.88000000      3.64900000
H      25.88000000     25.74300000      1.86700000
H      24.23300000     25.51000000      3.45100000
H      24.90700000     23.85100000      3.31900000
H      27.06770000     24.67930000      2.67180000
H      26.42360000     27.59660000      3.29980000
H      25.28820000     24.86540000      4.73470000
