14
pbedef2svp=-249.21807584372
C      35.59000000     21.94500000     13.30200000
C      35.06400000     20.95700000     12.25500000
N      31.11300000     20.86300000     15.86000000
C      31.59300000     20.55300000     14.65500000
O      32.15900000     21.31100000     13.86100000
H      36.68700000     21.87000000     13.28900000
H      35.45300000     19.95000000     12.46600000
H      33.96400000     20.93800000     12.28200000
H      35.25210000     21.70450000     14.32080000
H      35.33660000     22.97950000     13.02700000
H      35.40590000     21.28740000     11.26310000
H      30.62600000     20.16900000     16.39000000
H      31.23290000     21.77950000     16.24150000
H      31.45430000     19.49380000     14.39250000
