8
pbedef2svp=-79.64030498923 b3lypdef2svp=-79.7055520876 b3lypvdz=-79.76321996361
C      23.72700000     35.13100000     12.72200000
C      22.69900000     34.26700000     11.98500000
H      23.36200000     36.16700000     12.78000000
H      23.87600000     34.73700000     13.73800000
H      24.68200000     35.10900000     12.17700000
H      21.74500000     34.28200000     12.53300000
H      23.05330000     33.22760000     11.92010000
H      22.54660000     34.58290000     10.94240000
