15
pbedef2svp=-287.26248635218 b3lypdef2svp=-287.44873226319 b3lypvdz=-287.67015439811
C      28.76200000     29.57300000     19.90600000
C      27.33100000     29.31700000     20.36400000
O      27.10100000     28.34600000     21.09700000
N      26.43600000     30.23200000     20.00400000
C      25.03400000     30.17000000     20.40100000
C      24.63900000     31.42600000     21.28600000
H      28.81600000     30.60900000     19.54100000
H      26.73800000     30.99700000     19.43500000
H      24.85900000     29.26400000     21.00000000
H      24.67100000     32.30400000     20.62400000
H      29.45240000     29.47150000     20.75640000
H      29.04300000     28.90990000     19.07460000
H      24.36060000     30.15480000     19.53130000
H      25.35980000     31.60060000     22.09840000
H      23.60990000     31.34340000     21.66570000
