11
pbedef2svp=-264.04489229808 b3lypdef2svp=-264.20651180065 b3lypvdz=-264.41296169745
N      41.00100000     29.87800000     11.93100000
C      41.71800000     30.02200000     10.64300000
C      41.39900000     31.33800000      9.96700000
O      42.26000000     32.03600000      9.38100000
N      40.11700000     31.75000000      9.98800000
H      40.44300000     29.06500000     12.10000000
H      42.79800000     30.00900000     10.85200000
H      39.41000000     31.24600000     10.48500000
H      41.07040000     30.58720000     12.63260000
H      41.48780000     29.12870000     10.04380000
H      39.90930000     32.58620000      9.48050000
