8
pbedef2svp=-79.639901413 b3lypdef2svp=-79.70519739033 b3lypvdz=-79.76285018579
C      29.41200000     30.79600000     24.59800000
C      29.27100000     31.31400000     26.01600000
H      28.75300000     31.37500000     23.93500000
H      29.12000000     29.73600000     24.57000000
H      29.85100000     30.66900000     26.69200000
H      29.66200000     32.34100000     26.06300000
H      30.45110000     30.89380000     24.25040000
H      28.21910000     31.31630000     26.33770000
