20
pbedef2svp=-327.57366133662
C      23.81200000     34.03100000      5.67700000
C      24.62000000     34.77800000      4.85300000
N      22.09900000     29.16300000      5.60500000
C      21.90700000     30.56300000      5.88100000
C      26.85000000     29.02100000      3.89800000
C      26.10000000     29.25300000      5.20200000
O      24.86500000     29.02400000      5.33000000
H      22.94800000     33.51100000      5.29000000
H      24.31900000     34.89900000      3.82300000
H      24.07460000     33.98000000      6.74400000
H      25.55390000     35.25990000      5.17790000
H      23.03200000     28.85400000      5.42200000
H      22.89500000     31.02900000      5.75500000
H      21.37400000     28.47460000      5.58190000
H      21.58370000     30.84890000      6.89280000
H      21.28200000     31.02960000      5.10540000
H      27.91400000     28.87800000      4.13600000
H      26.47150000     28.10150000      3.42760000
H      26.76460000     29.84380000      3.17300000
H      26.72220000     29.58780000      6.04510000
