8
pbedef2svp=-79.63860746814 b3lypdef2svp=-79.70376252538 b3lypvdz=-79.76140103616
C      26.08400000     21.88800000     11.83300000
C      27.42600000     22.61600000     11.90200000
H      26.14900000     21.16800000     11.00400000
H      25.31800000     22.64300000     11.60300000
H      28.23400000     21.90500000     12.13000000
H      25.73480000     21.33280000     12.71610000
H      27.63490000     23.13470000     10.95470000
H      27.39290000     23.41200000     12.66050000
