13
pbedef2svp=-174.09615565435 b3lypdef2svp=-174.22135781555 b3lypvdz=-174.35103474682
C      29.47200000     35.18100000     23.49800000
C      29.82100000     35.95700000     24.76500000
N      30.12400000     34.53300000     21.19100000
C      30.47900000     35.36900000     22.37400000
H      29.51300000     34.11600000     23.77100000
H      29.05300000     35.77400000     25.53100000
H      30.80000000     35.62400000     25.14100000
H      29.86200000     37.03200000     24.53700000
H      29.93800000     33.55900000     21.31800000
H      30.50500000     36.43000000     22.08400000
H      28.43580000     35.37980000     23.18710000
H      30.06830000     34.92650000     20.27340000
H      31.49760000     35.04020000     22.62760000
