25
pbedef2svp=-636.81073774966
C      26.34400000     29.05000000      8.64500000
C      25.49100000     27.77100000      8.28700000
C      29.90300000     24.59000000      7.66500000
C      28.47600000     25.13500000      7.70500000
C      25.35300000     24.86000000      5.13400000
S      23.93000000     23.95900000      5.90400000
C      24.44700000     23.98400000      7.62000000
H      25.87900000     29.50700000      9.53100000
H      25.56300000     27.04000000      9.10600000
H      24.43900000     28.06000000      8.14500000
H      25.87600000     27.32100000      7.36000000
H      26.26570000     29.77390000      7.82050000
H      27.39250000     28.83400000      8.89820000
H      29.89100000     23.63600000      8.21200000
H      28.20500000     25.37800000      8.74300000
H      28.41300000     26.04300000      7.08700000
H      27.78300000     24.37600000      7.31300000
H      30.17450000     24.34680000      6.62710000
H      30.60400000     25.25220000      8.19420000
H      26.29500000     24.33800000      5.35600000
H      25.40300000     25.88800000      5.52200000
H      23.69300000     23.47500000      8.23800000
H      25.41300000     23.46700000      7.71900000
H      24.55300000     25.02600000      7.95600000
H      25.17680000     24.87460000      4.04830000
