20
pbedef2svp=-327.65957412062
C      29.54200000     39.02000000     10.65300000
C      28.11300000     39.04900000     10.01500000
C      27.58800000     37.63500000      9.71500000
N      27.75100000     35.86700000     13.74000000
C      27.69100000     37.31500000     14.14300000
C      28.63800000     35.46100000     12.90000000
O      29.52200000     36.10300000     12.32000000
H      29.47700000     38.47800000     11.60800000
H      28.15100000     39.62800000      9.08100000
H      26.58500000     37.70300000      9.26900000
H      28.26800000     37.13300000      9.01200000
H      27.53600000     37.05800000     10.65000000
H      30.00500000     40.00260000     10.82670000
H      30.22710000     38.47380000      9.98800000
H      27.48210000     39.55870000     10.75800000
H      27.09800000     35.21600000     14.12700000
H      28.13900000     37.93800000     13.35500000
H      28.26010000     37.43200000     15.07710000
H      26.63020000     37.58090000     14.26120000
H      28.61460000     34.39800000     12.61790000
