15
pbedef2svp=-287.26692038718 b3lypdef2svp=-287.45300217004 b3lypvdz=-287.67451131532
C      25.03400000     30.17000000     20.40100000
C      24.10100000     30.14900000     19.19600000
O      24.19600000     30.94800000     18.28700000
C      24.63900000     31.42600000     21.28600000
C      23.18100000     31.30900000     21.82400000
N      23.14100000     29.18700000     19.24100000
H      24.85900000     29.26400000     21.00000000
H      24.67100000     32.30400000     20.62400000
H      22.94200000     32.19400000     22.43200000
H      22.48200000     31.24600000     20.97700000
H      23.09000000     30.40400000     22.44300000
H      23.12400000     28.54900000     20.01100000
H      26.09140000     30.21680000     20.10160000
H      25.35980000     31.60060000     22.09840000
H      22.45120000     29.10210000     18.52200000
