9
pbedef2svp=-208.7536537913 b3lypdef2svp=-208.88605607815 b3lypvdz=-209.05029342353
O      28.44900000     20.67400000      8.36000000
N      29.38000000     22.05700000      6.23200000
C      28.46800000     20.94000000      5.98000000
C      27.81900000     20.60900000      7.31600000
H      30.12100000     21.92300000      6.89000000
H      27.69800000     21.22000000      5.24600000
H      29.30320000     22.94690000      5.78250000
H      29.00550000     20.04320000      5.63800000
H      26.76820000     20.28460000      7.29260000
