18
pbedef2svp=-326.49512790649 b3lypdef2svp=-326.70875026755 b3lypvdz=-326.95942451596
C      33.53300000     25.09700000     12.97800000
C      34.44100000     26.09900000     13.68400000
O      34.88300000     27.09000000     13.09300000
C      32.06000000     25.25700000     13.36400000
C      31.68400000     26.74900000     13.34200000
C      31.15200000     24.42100000     12.47700000
N      34.73400000     25.82200000     14.94900000
H      33.61300000     25.28200000     11.89700000
H      31.94400000     24.89900000     14.39800000
H      30.62600000     26.86500000     13.61900000
H      32.31300000     27.29600000     14.06000000
H      31.84500000     27.15300000     12.33100000
H      30.10600000     24.56300000     12.78500000
H      31.27200000     24.73600000     11.43000000
H      31.42200000     23.35900000     12.57400000
H      34.36300000     24.99500000     15.37200000
H      33.89050000     24.07720000     13.18320000
H      35.32050000     26.42960000     15.48450000
