6
pbedef2svp=-169.57189442209 b3lypdef2svp=-169.67476906679 b3lypvdz=-169.80884358028
O      23.57900000     31.32100000      9.55400000
N      22.24100000     31.87300000     11.24100000
C      22.50400000     31.22800000     10.13600000
H      21.34100000     31.75600000     11.66200000
H      22.90230000     32.47850000     11.68370000
H      21.73270000     30.53490000      9.76920000
