16
pbedef2svp=-271.20549793714 b3lypdef2svp=-271.38783187618 b3lypvdz=-271.59722161402
C      29.27900000     23.22700000      5.64100000
O      28.47800000     23.52200000      4.72500000
C      29.90300000     24.59000000      7.66500000
C      30.86200000     25.49600000      8.38900000
C      28.47600000     25.13500000      7.70500000
C      30.28800000     24.24500000      6.19300000
H      29.89100000     23.63600000      8.21200000
H      30.49800000     25.67400000      9.41200000
H      31.85400000     25.02200000      8.43000000
H      30.93500000     26.45400000      7.85400000
H      28.20500000     25.37800000      8.74300000
H      28.41300000     26.04300000      7.08700000
H      27.78300000     24.37600000      7.31300000
H      31.28700000     23.78400000      6.19600000
H      29.36350000     22.24810000      6.13550000
H      30.30460000     25.16000000      5.58270000
