5
pbedef2svp=-40.41441102784 b3lypdef2svp=-40.45129565456 b3lypvdz=-40.47984160455
C      26.26600000     25.41300000      2.84200000
H      25.88000000     25.74300000      1.86700000
H      27.06770000     24.67930000      2.67180000
H      26.72570000     26.28420000      3.33160000
H      25.42290000     25.02360000      3.43160000
