11
pbedef2svp=-321.903455729 b3lypdef2svp=-322.09684071266 b3lypvdz=-322.35298854028
N      26.46500000     25.68900000     21.83300000
C      26.82600000     24.52100000     21.01200000
C      27.99400000     23.78100000     21.64300000
O      28.90400000     24.44400000     22.09800000
C      25.74300000     25.58600000     22.92200000
O      25.32500000     24.48900000     23.37800000
H      26.78200000     26.59400000     21.54900000
H      25.96700000     23.83400000     21.00400000
H      26.98190000     24.85930000     19.97700000
H      27.95110000     22.68180000     21.64710000
H      25.45900000     26.51300000     23.44170000
