14
pbedef2svp=-303.25561638793 b3lypdef2svp=-303.44676496282 b3lypvdz=-303.68123837287
N      27.94200000     22.44800000     21.64800000
C      29.01500000     21.65700000     22.28800000
C      29.94200000     21.10600000     21.24000000
O      29.47000000     20.67700000     20.19000000
N      31.23300000     21.09000000     21.45900000
C      32.26200000     20.67000000     20.51400000
H      27.17100000     21.98000000     21.21600000
H      29.58400000     22.29400000     22.98200000
H      31.54300000     21.39500000     22.36000000
H      32.31500000     21.45700000     19.74700000
H      27.98100000     23.44720000     21.64430000
H      28.53100000     20.84640000     22.85260000
H      32.16500000     19.72420000     19.96070000
H      33.23390000     20.70250000     21.02820000
