17
pbedef2svp=-309.15842674374 b3lypdef2svp=-309.36890176348 b3lypvdz=-309.60987351709
C      21.86100000     31.34200000      3.47400000
C      21.15600000     30.72600000      2.31100000
O      19.94200000     30.79300000      2.17000000
C      26.13600000     35.34600000      6.64000000
C      23.81200000     34.03100000      5.67700000
C      25.28800000     34.60900000      7.49900000
C      24.14700000     33.96600000      7.03800000
H      22.03900000     32.40600000      3.26000000
H      22.82400000     30.83100000      3.61900000
H      21.27000000     31.25810000      4.39790000
H      21.85690000     30.22180000      1.62940000
H      27.00600000     35.85800000      7.02300000
H      22.94800000     33.51100000      5.29000000
H      23.51900000     33.41800000      7.72500000
H      25.88200000     35.38180000      5.57030000
H      24.45850000     34.62870000      5.01770000
H      25.58500000     34.52800000      8.55500000
