8
pbedef2svp=-228.64921267005 b3lypdef2svp=-228.7892481463 b3lypvdz=-228.97132169047
C      31.36300000     28.41000000      1.96200000
C      31.67100000     28.29100000      0.49800000
O      30.86900000     28.62100000     -0.36600000
O      32.83500000     27.86100000      0.27800000
H      30.27100000     28.49200000      2.06200000
H      31.83500000     29.33600000      2.32200000
H      32.99100000     27.83300000     -0.65900000
H      31.69230000     27.59520000      2.62350000
