13
pbedef2svp=-323.08209622953
O      29.80900000     29.39500000      5.54500000
C      31.02200000     29.28800000      5.66500000
C      26.23500000     30.05800000      7.49700000
N      26.84900000     29.65600000      6.21700000
C      26.10000000     29.25300000      5.20200000
O      24.86500000     29.02400000      5.33000000
H      31.49180000     29.99600000      6.36360000
H      31.70340000     28.55290000      5.21190000
H      25.16500000     30.24200000      7.32000000
H      27.84300000     29.68800000      6.11500000
H      26.69170000     31.02500000      7.75460000
H      26.31330000     29.33410000      8.32150000
H      26.64200000     29.08530000      4.25960000
