7
pbedef2svp=-153.52143963963 b3lypdef2svp=-153.62105339695 b3lypvdz=-153.74296803271
C      30.95500000     35.21100000      8.45900000
O      30.02500000     34.61800000      9.04000000
C      31.72000000     36.28900000      9.17600000
H      32.03600000     37.01200000      8.41000000
H      31.19690000     35.02270000      7.40260000
H      31.03820000     36.82410000      9.85340000
H      32.63200000     35.99860000      9.71820000
