16
pbedef2svp=-308.20250926754
C      26.54100000     18.73200000      9.25100000
O      26.33300000     18.53600000     10.45700000
C      30.49100000     19.16200000     12.04000000
O      29.36700000     19.52300000     12.44100000
C      26.08400000     21.88800000     11.83300000
C      27.42600000     22.61600000     11.90200000
H      26.02170000     19.52920000      8.69890000
H      27.22310000     18.08900000      8.67540000
H      30.71360000     19.10430000     10.96430000
H      31.33860000     18.97400000     12.71540000
H      26.14900000     21.16800000     11.00400000
H      25.31800000     22.64300000     11.60300000
H      28.23400000     21.90500000     12.13000000
H      25.73480000     21.33280000     12.71610000
H      27.63490000     23.13470000     10.95470000
H      27.39290000     23.41200000     12.66050000
