8
pbedef2svp=-79.64022549941 b3lypdef2svp=-79.70547731463 b3lypvdz=-79.76318378814
C      26.07000000     27.02500000     24.96000000
C      27.55300000     27.35600000     24.69500000
H      25.61000000     27.84000000     25.53800000
H      25.99900000     26.08600000     25.52900000
H      28.02600000     26.52000000     24.15900000
H      27.62300000     28.26900000     24.08500000
H      25.54450000     26.91350000     24.00010000
H      28.06650000     27.51530000     25.65460000
