10
pbedef2svp=-192.74954131777 b3lypdef2svp=-192.87682600329 b3lypvdz=-193.02789852463
O      33.54400000     23.08600000     20.88300000
C      32.26200000     20.67000000     20.51400000
C      33.63800000     20.71600000     21.24200000
C      34.17400000     22.12900000     21.35400000
H      32.31500000     21.45700000     19.74700000
H      33.51900000     20.30000000     22.25300000
H      34.35900000     20.10600000     20.67800000
H      31.48610000     20.98670000     21.22650000
H      32.16500000     19.72420000     19.96070000
H      35.12210000     22.29880000     21.88520000
