13
pbedef2svp=-377.2010301599 b3lypdef2svp=-377.42488134923 b3lypvdz=-377.72220919327
C      27.33100000     29.31700000     20.36400000
O      27.10100000     28.34600000     21.09700000
N      26.43600000     30.23200000     20.00400000
C      25.03400000     30.17000000     20.40100000
C      24.10100000     30.14900000     19.19600000
O      24.19600000     30.94800000     18.28700000
N      23.14100000     29.18700000     19.24100000
H      26.73800000     30.99700000     19.43500000
H      24.85900000     29.26400000     21.00000000
H      23.12400000     28.54900000     20.01100000
H      28.36380000     29.50180000     20.03350000
H      24.76010000     31.04090000     21.01460000
H      22.45120000     29.10210000     18.52200000
