13
pbedef2svp=-265.2131369446 b3lypdef2svp=-265.38417338946 b3lypvdz=-265.58988163776
N      34.93000000     34.38400000     25.45100000
C      35.16100000     34.17400000     26.89600000
C      36.33400000     31.74200000     23.08700000
O      35.57400000     32.61800000     23.48300000
N      36.00000000     30.86000000     22.17200000
H      35.33500000     33.73400000     24.80800000
H      34.63100000     34.92600000     27.50000000
H      34.39030000     35.14080000     25.08230000
H      36.24860000     34.26190000     27.03500000
H      34.84230000     33.15910000     27.17590000
H      36.65600000     30.13900000     21.94800000
H      37.33660000     31.66700000     23.53330000
H      35.12530000     30.87040000     21.68750000
