16
pbedef2svp=-159.28010795779
C      38.47100000     35.54600000     17.04500000
C      36.95800000     35.74600000     16.68000000
C      32.34500000     34.18300000     18.35800000
C      33.36100000     34.49100000     17.24500000
H      38.76200000     36.27900000     17.81200000
H      39.08700000     35.69300000     16.14500000
H      36.80500000     36.76400000     16.29200000
H      36.66600000     35.01400000     15.91300000
H      36.34200000     35.60000000     17.57900000
H      38.62780000     34.52890000     17.43350000
H      32.46000000     34.90800000     19.17700000
H      34.38200000     34.41200000     17.64800000
H      33.23400000     33.77100000     16.42300000
H      33.19300000     35.51100000     16.86800000
H      31.33610000     34.26900000     17.92820000
H      32.49840000     33.16000000     18.73210000
