6
pbedef2svp=-169.57296858647 b3lypdef2svp=-169.67551852801 b3lypvdz=-169.80970049527
N      19.81000000     29.37800000     18.57800000
C      20.83500000     28.62900000     18.90400000
O      20.82100000     27.73400000     19.74900000
H      19.96200000     30.14700000     17.95600000
H      18.88390000     29.21880000     18.92010000
H      21.75670000     28.93810000     18.38930000
