14
pbedef2svp=-249.14397079888 b3lypdef2svp=-249.31037287393 b3lypvdz=-249.50468202018
C      30.21000000     30.50900000     21.65000000
O      29.97800000     31.72600000     21.26900000
C      29.47200000     35.18100000     23.49800000
N      30.12400000     34.53300000     21.19100000
C      30.47900000     35.36900000     22.37400000
H      30.92970000     30.37810000     22.47150000
H      29.78370000     29.62250000     21.15760000
H      29.51300000     34.11600000     23.77100000
H      29.93800000     33.55900000     21.31800000
H      30.50500000     36.43000000     22.08400000
H      29.72350000     35.74030000     24.41120000
H      28.43580000     35.37980000     23.18710000
H      30.06830000     34.92650000     20.27340000
H      31.49760000     35.04020000     22.62760000
