13
pbedef2svp=-380.98567234504 b3lypdef2svp=-381.21510222318 b3lypvdz=-381.51960901247
C      21.46000000     18.73700000     16.16300000
O      20.49700000     18.50600000     16.90000000
C      23.46100000     17.33100000     16.74100000
C      24.18400000     16.01600000     16.61900000
O      25.30300000     15.89400000     17.15200000
O      23.57200000     15.10700000     15.97500000
C      22.41800000     17.63800000     15.69300000
H      24.21600000     18.13000000     16.70200000
H      22.96200000     17.34600000     17.72100000
H      24.10000000     14.31700000     15.96200000
H      21.81600000     16.72700000     15.56300000
H      21.78600000     19.76470000     15.94510000
H      22.84630000     17.88950000     14.71150000
