15
pbedef2svp=-382.11090934537
C      26.54100000     18.73200000      9.25100000
O      26.33300000     18.53600000     10.45700000
C      27.57400000     18.19200000     14.56300000
C      26.48200000     19.28000000     14.43200000
O      25.60900000     19.38800000     15.28700000
C      27.29900000     17.05500000     13.53300000
O      25.92500000     16.61100000     13.91300000
H      26.02170000     19.52920000      8.69890000
H      27.22310000     18.08900000      8.67540000
H      28.56000000     18.63600000     14.36100000
H      27.28300000     17.48700000     12.52200000
H      25.65000000     15.90600000     13.33900000
H      27.52640000     17.81830000     15.59650000
H      26.56800000     19.93400000     13.55170000
H      27.97910000     16.19060000     13.55110000
