16
pbedef2svp=-362.30822361859
C      40.44900000     32.27800000     17.94500000
O      39.93600000     31.33600000     17.31500000
C      38.14800000     30.98100000     13.06900000
O      38.54400000     32.15000000     12.85600000
N      38.88300000     30.11000000     13.71300000
C      40.26900000     30.50800000     14.11500000
C      40.99600000     29.39900000     14.86500000
H      40.28750000     33.31930000     17.62930000
H      41.06180000     32.11820000     18.84440000
H      38.52700000     29.20100000     13.93100000
H      40.23000000     31.41000000     14.74400000
H      40.46600000     29.18400000     15.80400000
H      41.02200000     28.49200000     14.24300000
H      37.13260000     30.68650000     12.76520000
H      40.85770000     30.72260000     13.21090000
H      42.02450000     29.71770000     15.09000000
