14
pbedef2svp=-249.21781467029
C      38.79400000     25.76100000     13.88000000
C      39.28500000     24.33600000     13.56600000
N      34.00700000     23.74500000     13.25000000
C      35.23800000     23.38200000     12.92000000
O      36.06600000     24.10900000     12.33300000
H      39.53500000     26.22600000     14.54600000
H      40.25500000     24.38700000     13.05000000
H      39.39800000     23.77200000     14.50400000
H      38.55200000     23.83000000     12.92000000
H      37.82360000     25.74750000     14.39780000
H      38.74620000     26.36250000     12.96030000
H      33.39700000     23.08600000     13.69000000
H      33.68200000     24.67210000     13.06350000
H      35.49140000     22.34750000     13.19500000
