19
pbedef2svp=-347.4367855448
C      36.97500000     26.82600000     15.10700000
O      37.57900000     27.92600000     15.15900000
C      40.08200000     26.90400000     18.19800000
C      41.03500000     27.90900000     18.87900000
O      42.77000000     27.65500000     15.90600000
C      42.44500000     29.84800000     15.18200000
C      43.09000000     28.82800000     16.09500000
H      35.97690000     26.74570000     15.56230000
H      37.41260000     25.92150000     14.65940000
H      40.61100000     25.98900000     17.89400000
H      39.58500000     27.34800000     17.32300000
H      41.73000000     27.40700000     19.56800000
H      41.60700000     28.49000000     18.14100000
H      39.36710000     26.70580000     19.01020000
H      40.31170000     28.53820000     19.41850000
H      43.02100000     29.92200000     14.24800000
H      42.42600000     30.82900000     15.68000000
H      41.41650000     29.52930000     14.95700000
H      43.76290000     29.18110000     16.89030000
