18
pbedef2svp=-289.31726601691 b3lypdef2svp=-289.51494655839 b3lypvdz=-289.73513254565
C      26.13600000     35.34600000      6.64000000
C      25.81000000     35.39200000      5.26700000
C      24.62000000     34.77800000      4.85300000
N      26.21400000     32.09700000      8.77100000
C      26.77200000     33.43600000      9.19700000
C      25.69500000     34.49800000      8.94600000
C      25.28800000     34.60900000      7.49900000
H      27.00600000     35.85800000      7.02300000
H      26.45800000     35.88500000      4.55700000
H      24.31900000     34.89900000      3.82300000
H      25.36900000     31.73600000      9.16600000
H      27.66100000     33.67200000      8.59400000
H      24.80600000     34.23900000      9.53900000
H      26.08400000     35.47300000      9.27400000
H      23.97350000     34.18030000      5.51230000
H      26.72330000     31.58690000      8.07790000
H      27.04930000     33.38190000     10.26010000
H      24.38410000     34.09960000      7.13380000
