22
pbedef2svp=-328.79408522329
C      29.66400000     39.83900000     17.43400000
O      28.85000000     40.56500000     16.85900000
N      29.72100000     43.67300000     15.88500000
C      28.97800000     43.96000000     14.67800000
C      25.88400000     39.13900000     14.61500000
C      24.34800000     39.29600000     14.64200000
C      23.86500000     40.72300000     14.74900000
H      30.06730000     38.97920000     16.87900000
H      30.05530000     40.03130000     18.44390000
H      29.42000000     42.90600000     16.45100000
H      27.99600000     43.47100000     14.76400000
H      28.84100000     45.05000000     14.61900000
H      30.51820000     44.19570000     16.18720000
H      29.43720000     43.62770000     13.73530000
H      26.30200000     39.41600000     15.59400000
H      26.30900000     39.79000000     13.83700000
H      23.94200000     38.86500000     13.71500000
H      23.96100000     38.73700000     15.50600000
H      24.32800000     41.20500000     15.62300000
H      24.13900000     41.27500000     13.83800000
H      26.12570000     38.08920000     14.39280000
H      22.77110000     40.72080000     14.86500000
