10
pbedef2svp=-192.74705552362 b3lypdef2svp=-192.87487853254 b3lypvdz=-193.02580029637
C      29.54200000     39.02000000     10.65300000
C      30.49400000     38.26100000      9.72900000
O      30.84900000     38.85000000      8.70600000
C      28.11300000     39.04900000     10.01500000
H      29.47700000     38.47800000     11.60800000
H      28.15100000     39.62800000      9.08100000
H      30.00500000     40.00260000     10.82670000
H      30.74240000     37.23280000     10.03100000
H      27.48210000     39.55870000     10.75800000
H      27.73750000     38.03760000      9.80040000
