7
pbedef2svp=-95.63761270402 b3lypdef2svp=-95.70716371089 b3lypvdz=-95.77846572801
N      30.88400000     31.48500000      6.66600000
C      31.67700000     30.27500000      6.63900000
H      29.90500000     31.41600000      6.85800000
H      32.72700000     30.46400000      6.36900000
H      31.28060000     32.38780000      6.49980000
H      31.20720000     29.56700000      5.94040000
H      31.59430000     29.85120000      7.65070000
