14
pbedef2svp=-361.13451760756 b3lypdef2svp=-361.35396604962 b3lypvdz=-361.63981980769
N      30.99100000     42.57100000     17.99800000
C      31.42200000     43.94000000     17.55300000
C      30.75500000     44.35100000     16.27700000
O      31.20700000     45.26800000     15.56600000
C      32.97900000     43.91800000     17.44500000
C      30.07500000     42.53800000     18.98400000
O      29.58600000     43.57000000     19.48300000
H      31.36100000     41.73700000     17.58800000
H      31.15100000     44.66200000     18.33700000
H      33.35300000     44.93600000     17.26300000
H      29.87810000     43.77600000     15.94460000
H      33.12510000     43.28030000     16.56070000
H      33.46820000     43.48580000     18.33040000
H      29.73530000     41.55230000     19.33460000
