8
pbedef2svp=-79.63533142885 b3lypdef2svp=-79.70047726007 b3lypvdz=-79.75813788612
C      28.34800000     20.54000000     23.06600000
C      29.24700000     19.45600000     23.70500000
H      27.77300000     21.00700000     23.87900000
H      27.66000000     20.02800000     22.37700000
H      29.26900000     18.57400000     23.04800000
H      30.26600000     19.85500000     23.81800000
H      28.83200000     21.35060000     22.50140000
H      28.86580000     19.15900000     24.69320000
