14
pbedef2svp=-303.26243641479 b3lypdef2svp=-303.45121082472 b3lypvdz=-303.68656227625
N      41.00100000     29.87800000     11.93100000
C      41.71800000     30.02200000     10.64300000
C      41.39900000     31.33800000      9.96700000
O      42.26000000     32.03600000      9.38100000
N      40.11700000     31.75000000      9.98800000
C      39.80800000     32.99400000      9.23300000
H      40.44300000     29.06500000     12.10000000
H      42.79800000     30.00900000     10.85200000
H      39.41000000     31.24600000     10.48500000
H      40.65200000     33.09000000      8.53400000
H      41.07040000     30.58720000     12.63260000
H      41.48780000     29.12870000     10.04380000
H      39.82940000     33.93840000      9.79660000
H      38.94160000     32.85380000      8.56990000
