11
pbedef2svp=-267.87581325656 b3lypdef2svp=-268.04290984807 b3lypvdz=-268.25423516786
C      23.46100000     17.33100000     16.74100000
C      24.18400000     16.01600000     16.61900000
O      25.30300000     15.89400000     17.15200000
O      23.57200000     15.10700000     15.97500000
C      22.41800000     17.63800000     15.69300000
H      24.21600000     18.13000000     16.70200000
H      22.96200000     17.34600000     17.72100000
H      24.10000000     14.31700000     15.96200000
H      21.81600000     16.72700000     15.56300000
H      22.84630000     17.88950000     14.71150000
H      21.73010000     18.42720000     16.03050000
