12
pbedef2svp=-247.98589642152 b3lypdef2svp=-248.14407319599 b3lypvdz=-248.33837449533
N      37.49900000     25.74300000     14.57100000
C      38.79400000     25.76100000     13.88000000
C      38.72800000     26.59100000     12.61100000
O      39.70400000     27.34600000     12.27700000
C      39.28500000     24.33600000     13.56600000
H      36.99800000     24.88000000     14.63700000
H      39.53500000     26.22600000     14.54600000
H      40.25500000     24.38700000     13.05000000
H      39.39800000     23.77200000     14.50400000
H      38.55200000     23.83000000     12.92000000
H      37.10120000     26.56530000     14.97800000
H      37.81870000     26.55110000     11.99320000
