17
pbedef2svp=-346.25869590393 b3lypdef2svp=-346.48524893843 b3lypvdz=-346.75818050233
C      36.08300000     30.19400000     17.87500000
O      35.04800000     29.70200000     17.39300000
C      36.73100000     30.57000000     12.64500000
C      38.14800000     30.98100000     13.06900000
O      38.54400000     32.15000000     12.85600000
C      35.70800000     30.77600000     13.80600000
C      35.87400000     32.13800000     14.51200000
H      36.03110000     30.68130000     18.85980000
H      37.04120000     30.13710000     17.33770000
H      36.42300000     31.20600000     11.80200000
H      35.89000000     29.98800000     14.55100000
H      35.13000000     32.22700000     15.31700000
H      36.88600000     32.20900000     14.93800000
H      35.72500000     32.94900000     13.78400000
H      36.79070000     29.52500000     12.30690000
H      38.76560000     30.24910000     13.61020000
H      34.66770000     30.67340000     13.46370000
