10
pbedef2svp=-134.86028497144 b3lypdef2svp=-134.9573076301 b3lypvdz=-135.05805771336
C      32.99500000     35.88300000      9.93400000
N      30.79500000     37.01500000     10.09500000
C      31.72000000     36.28900000      9.17600000
H      33.82000000     36.38500000      9.40700000
H      30.42700000     36.59700000     10.92600000
H      32.03600000     37.01200000      8.41000000
H      33.21760000     34.80790000      9.86670000
H      33.07410000     36.22850000     10.97530000
H      30.56920000     37.94970000      9.82040000
H      31.16040000     35.50050000      8.65150000
