18
pbedef2svp=-326.48812660301 b3lypdef2svp=-326.70249998698 b3lypvdz=-326.95278491457
C      31.19100000     42.01200000     12.33100000
C      30.45900000     40.66600000     12.13000000
O      30.25300000     39.99100000     13.13300000
C      32.67200000     41.71700000     12.50500000
N      30.16300000     40.33800000     10.88600000
C      29.54200000     39.02000000     10.65300000
C      28.11300000     39.04900000     10.01500000
H      31.04300000     42.64100000     11.44100000
H      33.20000000     42.65600000     12.72600000
H      32.80100000     41.01800000     13.34500000
H      30.35300000     40.96100000     10.12800000
H      29.47700000     38.47800000     11.60800000
H      28.15100000     39.62800000      9.08100000
H      30.71680000     42.47330000     13.20980000
H      33.10360000     41.26910000     11.59780000
H      30.22710000     38.47380000      9.98800000
H      27.48210000     39.55870000     10.75800000
H      27.73750000     38.03760000      9.80040000
