7
pbedef2svp=-153.52131971336 b3lypdef2svp=-153.62032762998 b3lypvdz=-153.74251917716
C      22.92400000     18.58300000     12.02500000
C      22.22900000     18.24400000     13.32500000
O      20.96300000     18.25300000     13.39500000
H      22.28300000     19.29200000     11.48000000
H      23.89930000     19.06470000     12.18880000
H      23.02070000     17.68240000     11.40090000
H      22.86870000     18.02250000     14.19200000
