15
pbedef2svp=-287.21759795202 b3lypdef2svp=-287.40931377606 b3lypvdz=-287.63242866662
C      23.81200000     34.03100000      5.67700000
C      24.14700000     33.96600000      7.03800000
O      23.57900000     31.32100000      9.55400000
N      22.24100000     31.87300000     11.24100000
C      21.41900000     30.25300000      9.62000000
C      22.50400000     31.22800000     10.13600000
H      22.94800000     33.51100000      5.29000000
H      23.51900000     33.41800000      7.72500000
H      24.45850000     34.62870000      5.01770000
H      25.05090000     34.47540000      7.40320000
H      21.34100000     31.75600000     11.66200000
H      20.41000000     30.65000000      9.80700000
H      22.90230000     32.47850000     11.68370000
H      21.61010000     30.08890000      8.54920000
H      21.57530000     29.29940000     10.14560000
