16
pbedef2svp=-159.27988565463 b3lypdef2svp=-159.40959400411 b3lypvdz=-159.52497787923
C      30.92500000     34.30400000     17.75300000
C      32.34500000     34.18300000     18.35800000
C      35.92600000     35.97900000     21.73700000
C      35.00300000     35.08400000     20.92000000
H      30.79800000     33.52100000     16.99100000
H      30.82500000     35.29300000     17.28200000
H      32.46000000     34.90800000     19.17700000
H      30.13450000     34.19220000     18.50970000
H      32.49840000     33.16000000     18.73210000
H      33.07160000     34.40330000     17.56200000
H      36.73600000     35.36100000     22.15200000
H      35.56200000     34.65300000     20.07600000
H      34.62000000     34.27400000     21.55700000
H      34.16100000     35.67900000     20.53700000
H      35.34590000     36.39700000     22.57290000
H      36.36930000     36.78820000     21.13810000
