16
pbedef2svp=-362.32487991714 b3lypdef2svp=-362.5543679442 b3lypvdz=-362.83932450543
N      26.46500000     25.68900000     21.83300000
C      25.74300000     25.58600000     22.92200000
O      25.32500000     24.48900000     23.37800000
C      26.82600000     24.52100000     21.01200000
C      28.76200000     29.57300000     19.90600000
C      27.33100000     29.31700000     20.36400000
O      27.10100000     28.34600000     21.09700000
H      26.78200000     26.59400000     21.54900000
H      25.96700000     23.83400000     21.00400000
H      25.45900000     26.51300000     23.44170000
H      27.67130000     23.98540000     21.46870000
H      26.98190000     24.85930000     19.97700000
H      28.81600000     30.60900000     19.54100000
H      29.45240000     29.47150000     20.75640000
H      29.04300000     28.90990000     19.07460000
H      26.59060000     30.07400000     20.06620000
