11
pbedef2svp=-264.03953640019 b3lypdef2svp=-264.20200363225 b3lypvdz=-264.40990602829
N      27.34000000     24.43000000      2.61400000
C      26.26600000     25.41300000      2.84200000
C      26.91300000     26.63900000      3.53100000
O      27.88600000     26.46300000      4.26300000
N      26.33500000     27.77000000      3.25800000
H      26.96100000     23.61900000      2.16800000
H      28.04300000     24.83400000      2.02900000
H      25.88000000     25.74300000      1.86700000
H      25.55800000     27.80400000      2.63000000
H      25.42290000     25.02360000      3.43160000
H      26.67910000     28.60590000      3.68560000
