13
pbedef2svp=-265.22376870781
C      36.32200000     32.94400000      6.47700000
N      35.76800000     33.94500000      5.48900000
C      31.40900000     32.68000000      6.44600000
O      32.61900000     32.81200000      6.12500000
N      30.88400000     31.48500000      6.66600000
H      37.34000000     32.64900000      6.18200000
H      35.67700000     32.05300000      6.51000000
H      35.73600000     33.53300000      4.57900000
H      34.84500000     34.21200000      5.76700000
H      36.34300000     33.42920000      7.46400000
H      29.90500000     31.41600000      6.85800000
H      30.74920000     33.55880000      6.49420000
H      31.43200000     30.64880000      6.64730000
