23
pbedef2svp=-312.79210853211
C      35.59600000     26.71500000     15.73600000
C      35.71500000     26.20300000     17.17200000
C      36.08300000     30.19400000     17.87500000
O      35.04800000     29.70200000     17.39300000
C      36.73100000     30.57000000     12.64500000
C      35.70800000     30.77600000     13.80600000
C      35.87400000     32.13800000     14.51200000
H      35.14500000     27.71800000     15.76300000
H      35.94800000     25.12800000     17.16500000
H      36.51400000     26.74800000     17.69600000
H      34.95080000     26.04660000     15.14690000
H      36.59410000     26.79530000     15.28070000
H      34.75430000     26.37240000     17.68030000
H      36.03110000     30.68130000     18.85980000
H      37.04120000     30.13710000     17.33770000
H      36.42300000     31.20600000     11.80200000
H      35.89000000     29.98800000     14.55100000
H      35.13000000     32.22700000     15.31700000
H      36.88600000     32.20900000     14.93800000
H      35.72500000     32.94900000     13.78400000
H      36.79070000     29.52500000     12.30690000
H      37.74640000     30.86450000     12.94880000
H      34.66770000     30.67340000     13.46370000
