12
pbedef2svp=-247.98234305293 b3lypdef2svp=-248.14097736238 b3lypvdz=-248.33492481975
N      25.62100000     32.94500000     16.95000000
C      26.17900000     34.12700000     17.65000000
C      27.47500000     33.65100000     18.30400000
O      27.50700000     32.58700000     18.95800000
C      25.21400000     34.56500000     18.78000000
H      25.18900000     32.20800000     17.47000000
H      26.36900000     34.95900000     16.95600000
H      24.95100000     33.70000000     19.40600000
H      25.69000000     35.33700000     19.40200000
H      25.68090000     32.89130000     15.95320000
H      28.34830000     34.31300000     18.20840000
H      24.31050000     34.97140000     18.30190000
