13
pbedef2svp=-377.19177736372 b3lypdef2svp=-377.41501117008 b3lypvdz=-377.71294359559
C      26.91300000     26.63900000      3.53100000
O      27.88600000     26.46300000      4.26300000
N      26.33500000     27.77000000      3.25800000
C      26.85000000     29.02100000      3.89800000
C      26.10000000     29.25300000      5.20200000
O      24.86500000     29.02400000      5.33000000
N      26.84900000     29.65600000      6.21700000
H      25.55800000     27.80400000      2.63000000
H      27.91400000     28.87800000      4.13600000
H      27.84300000     29.68800000      6.11500000
H      26.45330000     25.76780000      3.04140000
H      26.76460000     29.84380000      3.17300000
H      26.43290000     29.92850000      7.08450000
