17
pbedef2svp=-288.44172630206
O      23.57900000     31.32100000      9.55400000
N      22.24100000     31.87300000     11.24100000
C      22.50400000     31.22800000     10.13600000
C      26.23500000     30.05800000      7.49700000
C      26.34400000     29.05000000      8.64500000
C      25.49100000     27.77100000      8.28700000
H      21.34100000     31.75600000     11.66200000
H      22.90230000     32.47850000     11.68370000
H      21.73270000     30.53490000      9.76920000
H      25.16500000     30.24200000      7.32000000
H      25.87900000     29.50700000      9.53100000
H      25.56300000     27.04000000      9.10600000
H      24.43900000     28.06000000      8.14500000
H      25.87600000     27.32100000      7.36000000
H      26.69280000     29.75830000      6.54270000
H      26.69170000     31.02500000      7.75460000
H      27.39250000     28.83400000      8.89820000
