17
pbedef2svp=-342.49181597841 b3lypdef2svp=-342.71049853624 b3lypvdz=-342.97420290758
N      29.38000000     22.05700000      6.23200000
C      28.46800000     20.94000000      5.98000000
C      27.81900000     20.60900000      7.31600000
O      28.44900000     20.67400000      8.36000000
C      29.21300000     19.69700000      5.50600000
N      26.55900000     20.22000000      7.28800000
C      25.82900000     19.82500000      8.49400000
H      30.12100000     21.92300000      6.89000000
H      27.69800000     21.22000000      5.24600000
H      30.07700000     19.54500000      6.16900000
H      28.53000000     18.83800000      5.59000000
H      25.66900000     20.69300000      9.15000000
H      29.30320000     22.94690000      5.78250000
H      29.58180000     19.73850000      4.47050000
H      25.98970000     20.14450000      6.46940000
H      26.34830000     19.02780000      9.04610000
H      24.86060000     19.47400000      8.10810000
