16
pbedef2svp=-362.29204753995
C      30.21000000     30.50900000     21.65000000
O      29.97800000     31.72600000     21.26900000
C      31.90100000     34.91000000     22.72800000
O      32.19000000     33.69600000     22.63500000
N      32.76300000     35.83100000     23.09000000
C      34.14500000     35.47200000     23.48100000
C      35.11400000     36.56400000     22.90700000
H      30.92970000     30.37810000     22.47150000
H      29.78370000     29.62250000     21.15760000
H      32.48200000     36.79100000     23.10200000
H      34.41100000     34.50500000     23.02800000
H      34.52600000     37.42200000     22.55000000
H      35.80200000     36.89500000     23.69900000
H      30.88240000     35.23880000     22.47440000
H      34.21370000     35.38510000     24.57540000
H      35.69410000     36.14600000     22.07110000
