18
pbedef2svp=-326.48237982124 b3lypdef2svp=-326.69612581434 b3lypvdz=-326.94711217446
N      30.12400000     34.53300000     21.19100000
C      30.47900000     35.36900000     22.37400000
C      29.47200000     35.18100000     23.49800000
C      29.82100000     35.95700000     24.76500000
C      29.80100000     34.14500000     18.82900000
C      30.05200000     35.04200000     20.00400000
O      30.10500000     36.30500000     19.78800000
H      29.93800000     33.55900000     21.31800000
H      30.50500000     36.43000000     22.08400000
H      29.51300000     34.11600000     23.77100000
H      29.05300000     35.77400000     25.53100000
H      30.80000000     35.62400000     25.14100000
H      29.86200000     37.03200000     24.53700000
H      29.80100000     33.10000000     19.17200000
H      31.49760000     35.04020000     22.62760000
H      28.43580000     35.37980000     23.18710000
H      28.83900000     34.37270000     18.34650000
H      30.59150000     34.25680000     18.07230000
