18
pbedef2svp=-363.49844229441
C      40.16800000     30.02600000     19.91800000
O      39.26400000     30.66200000     20.52100000
C      34.87600000     30.23700000     20.06600000
C      36.01200000     30.86000000     19.22100000
C      38.36500000     29.33500000     24.15900000
O      37.68400000     29.39000000     25.22100000
N      38.41900000     30.37300000     23.34100000
H      41.10530000     30.55160000     19.68310000
H      40.07650000     28.96140000     19.65690000
H      35.08000000     29.16300000     20.18800000
H      33.92600000     30.37100000     19.52700000
H      35.81700000     31.93400000     19.08500000
H      36.97000000     30.72500000     19.74400000
H      34.77810000     30.68950000     21.06380000
H      36.06390000     30.37270000     18.23620000
H      38.91700000     30.30600000     22.47600000
H      38.86900000     28.41650000     23.82390000
H      37.95980000     31.22540000     23.59120000
