16
pbedef2svp=-159.27881900396 b3lypdef2svp=-159.40843501218 b3lypvdz=-159.52376726326
C      30.52000000     22.30000000     17.76400000
C      29.00600000     22.04300000     17.44200000
C      27.04300000     24.99200000     19.57100000
C      25.93100000     25.84400000     18.95900000
H      30.88200000     21.52100000     18.45100000
H      28.90200000     21.00100000     17.10700000
H      28.43100000     22.19000000     18.36800000
H      31.06370000     22.22990000     16.81040000
H      30.74120000     23.29180000     18.18510000
H      28.57490000     22.69440000     16.66750000
H      27.96900000     25.58500000     19.54900000
H      27.16400000     24.09800000     18.94200000
H      25.90600000     26.81600000     19.47400000
H      26.88710000     24.65370000     20.60600000
H      26.12640000     26.01570000     17.89020000
H      24.94360000     25.36710000     19.04650000
