18
pbedef2svp=-326.48559537954 b3lypdef2svp=-326.70041740355 b3lypvdz=-326.95083709655
C      27.57400000     18.19200000     14.56300000
C      26.48200000     19.28000000     14.43200000
O      25.60900000     19.38800000     15.28700000
C      27.29900000     17.05500000     13.53300000
N      26.58500000     20.06300000     13.37800000
C      25.59400000     21.10900000     13.07200000
C      26.08400000     21.88800000     11.83300000
H      28.56000000     18.63600000     14.36100000
H      27.28300000     17.48700000     12.52200000
H      27.36400000     19.94300000     12.76300000
H      25.51600000     21.80500000     13.92000000
H      26.14900000     21.16800000     11.00400000
H      25.31800000     22.64300000     11.60300000
H      27.52640000     17.81830000     15.59650000
H      26.28680000     16.72790000     13.81300000
H      27.97910000     16.19060000     13.55110000
H      24.61890000     20.62400000     12.91710000
H      27.04990000     22.41200000     11.88270000
