19
pbedef2svp=-347.44712933576
C      31.59300000     20.55300000     14.65500000
O      32.15900000     21.31100000     13.86100000
C      31.15200000     24.42100000     12.47700000
C      32.06000000     25.25700000     13.36400000
C      35.54100000     21.41800000     10.87100000
O      36.77200000     21.62300000     10.67600000
C      35.06400000     20.95700000     12.25500000
H      31.45430000     19.49380000     14.39250000
H      31.19710000     20.80870000     15.64890000
H      30.10600000     24.56300000     12.78500000
H      31.27200000     24.73600000     11.43000000
H      31.42200000     23.35900000     12.57400000
H      31.94400000     24.89900000     14.39800000
H      33.11820000     25.14210000     13.08670000
H      31.79120000     26.32350000     13.34830000
H      35.45300000     19.95000000     12.46600000
H      33.96400000     20.93800000     12.28200000
H      34.78600000     21.56440000     10.08450000
H      35.44150000     21.66610000     13.00640000
