8
pbedef2svp=-79.63902508252 b3lypdef2svp=-79.70417574952 b3lypvdz=-79.76192404377
C      26.34400000     29.05000000      8.64500000
C      25.49100000     27.77100000      8.28700000
H      25.87900000     29.50700000      9.53100000
H      25.56300000     27.04000000      9.10600000
H      24.43900000     28.06000000      8.14500000
H      25.87600000     27.32100000      7.36000000
H      26.26570000     29.77390000      7.82050000
H      27.39250000     28.83400000      8.89820000
