17
pbedef2svp=-342.48494741622 b3lypdef2svp=-342.70192190039 b3lypvdz=-342.96636471556
N      20.29100000     24.87500000      9.50700000
C      20.08100000     24.77300000      8.03300000
C      18.59900000     24.73600000      7.72700000
C      17.81900000     23.43400000      7.90000000
C      16.50900000     23.52900000      7.11600000
O      15.44600000     22.98000000      7.43300000
N      16.53900000     24.29300000      6.00900000
H      19.77500000     25.56800000     10.01100000
H      20.52200000     23.82600000      7.68800000
H      18.12100000     25.48200000      8.37800000
H      18.48300000     25.03900000      6.67600000
H      18.41700000     22.59300000      7.51900000
H      17.60000000     23.27500000      8.96600000
H      15.71200000     24.40900000      5.45900000
H      17.38800000     24.74500000      5.73600000
H      20.91950000     24.28870000     10.01810000
H      20.61360000     25.59310000      7.52920000
