14
pbedef2svp=-303.26406749577 b3lypdef2svp=-303.45410240597 b3lypvdz=-303.6890268228
C      29.27900000     23.22700000      5.64100000
O      28.47800000     23.52200000      4.72500000
N      29.38000000     22.05700000      6.23200000
C      28.46800000     20.94000000      5.98000000
N      30.31000000     25.45800000      5.38400000
C      30.28800000     24.24500000      6.19300000
H      30.12100000     21.92300000      6.89000000
H      27.69800000     21.22000000      5.24600000
H      29.44600000     25.83300000      5.04800000
H      31.28700000     23.78400000      6.19600000
H      27.99890000     20.70070000      6.94570000
H      29.00550000     20.04320000      5.63800000
H      31.16300000     25.92680000      5.15450000
H      30.01650000     24.48820000      7.23090000
