19
pbedef2svp=-347.42837678223
C      29.94200000     21.10600000     21.24000000
O      29.47000000     20.67700000     20.19000000
C      26.92600000     18.19100000     18.89200000
C      26.62100000     17.79900000     20.35200000
C      24.51700000     21.47000000     20.03000000
O      25.24800000     21.30200000     21.19100000
C      23.20400000     21.90700000     20.19200000
H      29.26390000     21.50910000     22.00660000
H      31.02640000     21.09260000     21.42400000
H      27.14900000     19.26800000     18.86300000
H      26.03200000     17.98500000     18.28500000
H      27.54500000     17.79200000     20.94900000
H      25.90200000     18.50300000     20.79700000
H      27.77560000     17.65050000     18.44920000
H      26.18900000     16.78870000     20.30110000
H      26.12400000     21.00400000     20.97400000
H      22.79100000     22.04900000     21.18000000
H      24.94470000     21.32210000     19.02740000
H      22.59530000     22.10540000     19.29750000
