11
pbedef2svp=-118.85274810676 b3lypdef2svp=-118.94513096447 b3lypvdz=-119.03240475548
C      24.46900000     19.33200000      7.95200000
C      24.29900000     20.13400000      6.70400000
C      25.82900000     19.82500000      8.49400000
H      24.49800000     18.25500000      7.73000000
H      23.65900000     19.53700000      8.66800000
H      23.56000000     19.67000000      6.03400000
H      23.98900000     21.16400000      6.93600000
H      25.66900000     20.69300000      9.15000000
H      25.30350000     20.11550000      6.25610000
H      26.37750000     20.12180000      7.58790000
H      26.34830000     19.02780000      9.04610000
