11
pbedef2svp=-267.87584627494 b3lypdef2svp=-268.04390876741 b3lypvdz=-268.25492694577
C      31.82700000     27.26200000      2.89400000
C      31.36300000     28.41000000      1.96200000
C      31.67100000     28.29100000      0.49800000
O      30.86900000     28.62100000     -0.36600000
O      32.83500000     27.86100000      0.27800000
H      32.92200000     27.30900000      2.98900000
H      31.53900000     26.30300000      2.43900000
H      30.27100000     28.49200000      2.06200000
H      31.83500000     29.33600000      2.32200000
H      32.99100000     27.83300000     -0.65900000
H      31.38500000     27.31950000      3.89960000
