13
pbedef2svp=-269.04627447797
C      29.90300000     24.59000000      7.66500000
C      28.47600000     25.13500000      7.70500000
C      31.92300000     20.43600000      8.75500000
O      32.49300000     19.37400000      8.45600000
O      31.83800000     21.40200000      7.96800000
H      29.89100000     23.63600000      8.21200000
H      28.20500000     25.37800000      8.74300000
H      28.41300000     26.04300000      7.08700000
H      27.78300000     24.37600000      7.31300000
H      30.17450000     24.34680000      6.62710000
H      30.60400000     25.25220000      8.19420000
H      32.26600000     21.18200000      7.14900000
H      31.36200000     20.49370000      9.69940000
