13
pbedef2svp=-323.08322030373 b3lypdef2svp=-323.2857268989 b3lypvdz=-323.54142910502
O      28.44900000     20.67400000      8.36000000
C      27.81900000     20.60900000      7.31600000
O      29.93000000     16.47700000     10.60600000
N      29.59900000     18.59900000      9.82800000
C      30.79600000     19.08300000     10.56600000
C      29.25800000     17.31800000      9.98400000
H      28.28810000     20.84830000      6.35030000
H      26.76820000     20.28460000      7.29260000
H      29.07000000     19.20900000      9.23800000
H      31.64900000     18.41000000     10.39300000
H      30.57340000     19.14070000     11.64170000
H      31.04840000     20.08980000     10.20180000
H      28.38130000     16.96630000      9.42040000
