13
pbedef2svp=-323.05974188339 b3lypdef2svp=-323.25945658347 b3lypvdz=-323.51552220462
N      29.42600000     38.43000000     15.44600000
C      30.22500000     38.64300000     16.66200000
C      29.66400000     39.83900000     17.43400000
O      28.85000000     40.56500000     16.85900000
C      31.74400000     38.87900000     16.29900000
O      31.73700000     40.25700000     15.82400000
H      29.59100000     38.99300000     14.63600000
H      30.16200000     37.75100000     17.30200000
H      32.36600000     38.76400000     17.19900000
H      32.61800000     40.51000000     15.57300000
H      28.71830000     37.72380000     15.42680000
H      30.05530000     40.03130000     18.44390000
H      32.11290000     38.22830000     15.49250000
