18
pbedef2svp=-326.47392350792 b3lypdef2svp=-326.6879094198 b3lypvdz=-326.93839915079
C      39.07600000     34.93100000     29.03100000
O      38.29700000     34.94600000     29.99600000
N      40.29400000     34.41200000     29.04500000
C      40.87300000     33.80200000     30.25300000
C      41.65100000     32.52900000     29.92300000
C      41.60800000     31.44400000     30.98900000
C      41.89600000     30.08000000     30.45600000
H      40.83900000     34.43500000     28.20700000
H      40.05800000     33.53600000     30.94300000
H      41.23700000     32.10900000     28.99400000
H      42.70300000     32.80600000     29.76300000
H      42.35500000     31.68200000     31.76000000
H      40.60500000     31.43800000     31.44000000
H      41.30800000     29.34500000     31.02600000
H      41.60100000     30.04400000     29.39700000
H      38.78120000     35.34360000     28.05480000
H      41.51610000     34.54240000     30.75120000
H      42.96180000     29.82010000     30.53660000
