15
pbedef2svp=-378.37241179664 b3lypdef2svp=-378.60568746463 b3lypvdz=-378.90251406668
N      25.62100000     32.94500000     16.95000000
C      25.69800000     32.87600000     15.66900000
O      26.15800000     33.73000000     14.89400000
N      27.75100000     35.86700000     13.74000000
C      27.69100000     37.31500000     14.14300000
C      28.63800000     35.46100000     12.90000000
O      29.52200000     36.10300000     12.32000000
H      25.18900000     32.20800000     17.47000000
H      25.99730000     33.74220000     17.42210000
H      25.30670000     31.97290000     15.17790000
H      27.09800000     35.21600000     14.12700000
H      28.13900000     37.93800000     13.35500000
H      28.26010000     37.43200000     15.07710000
H      26.63020000     37.58090000     14.26120000
H      28.61460000     34.39800000     12.61790000
