14
pbedef2svp=-361.14071033746 b3lypdef2svp=-361.36150571834 b3lypvdz=-361.64701366754
C      25.59400000     21.10900000     13.07200000
C      24.24100000     20.43600000     12.85700000
O      23.26400000     20.95100000     13.32900000
N      24.24000000     19.23300000     12.24600000
C      22.92400000     18.58300000     12.02500000
C      22.22900000     18.24400000     13.32500000
O      20.96300000     18.25300000     13.39500000
H      25.51600000     21.80500000     13.92000000
H      25.09100000     18.79700000     11.95400000
H      22.28300000     19.29200000     11.48000000
H      26.33400000     20.32790000     13.30050000
H      25.94320000     21.66420000     12.18890000
H      23.02070000     17.68240000     11.40090000
H      22.86870000     18.02250000     14.19200000
