13
pbedef2svp=-231.97842973531 b3lypdef2svp=-232.13455024914 b3lypvdz=-232.31433291353
C      34.73800000     30.87500000     21.47300000
C      33.58900000     30.18900000     22.18100000
O      33.58000000     29.00900000     22.49900000
C      34.87600000     30.23700000     20.06600000
C      36.01200000     30.86000000     19.22100000
H      34.44500000     31.92400000     21.31900000
H      35.08000000     29.16300000     20.18800000
H      33.92600000     30.37100000     19.52700000
H      35.81700000     31.93400000     19.08500000
H      36.97000000     30.72500000     19.74400000
H      35.70020000     30.86360000     22.00590000
H      32.67090000     30.79060000     22.25370000
H      36.06390000     30.37270000     18.23620000
