12
pbedef2svp=-248.0176123868 b3lypdef2svp=-248.1750125373 b3lypvdz=-248.36780638442
N      30.12400000     34.53300000     21.19100000
C      30.47900000     35.36900000     22.37400000
C      29.47200000     35.18100000     23.49800000
C      30.05200000     35.04200000     20.00400000
O      30.10500000     36.30500000     19.78800000
H      29.93800000     33.55900000     21.31800000
H      30.50500000     36.43000000     22.08400000
H      29.51300000     34.11600000     23.77100000
H      31.49760000     35.04020000     22.62760000
H      29.72350000     35.74030000     24.41120000
H      28.43580000     35.37980000     23.18710000
H      29.86790000     34.38390000     19.14200000
