14
pbedef2svp=-361.1473881436 b3lypdef2svp=-361.36785805623 b3lypvdz=-361.65354806723
C      27.69100000     37.31500000     14.14300000
C      28.46900000     37.47500000     15.42000000
O      28.21300000     36.75300000     16.41100000
N      29.42600000     38.43000000     15.44600000
C      30.22500000     38.64300000     16.66200000
C      29.66400000     39.83900000     17.43400000
O      28.85000000     40.56500000     16.85900000
H      28.13900000     37.93800000     13.35500000
H      29.59100000     38.99300000     14.63600000
H      30.16200000     37.75100000     17.30200000
H      27.73490000     36.25610000     13.84830000
H      26.63020000     37.58090000     14.26120000
H      31.28290000     38.80740000     16.40920000
H      30.05530000     40.03130000     18.44390000
