18
pbedef2svp=-235.27353925898 b3lypdef2svp=-235.4491442148 b3lypvdz=-235.62619435131
C      26.92600000     18.19100000     18.89200000
C      28.10800000     17.43900000     18.27600000
C      22.94500000     21.95100000     17.78500000
C      24.27200000     21.54400000     17.64400000
C      22.43700000     22.15700000     19.06500000
C      25.05200000     21.28500000     18.77600000
H      27.14900000     19.26800000     18.86300000
H      26.03200000     17.98500000     18.28500000
H      27.85100000     16.37300000     18.19200000
H      26.70840000     17.91140000     19.93340000
H      29.02550000     17.55440000     18.87180000
H      28.30110000     17.84390000     17.27160000
H      24.69800000     21.42900000     16.65800000
H      21.42600000     22.51800000     19.18200000
H      26.07000000     20.94100000     18.66600000
H      22.31860000     22.17170000     16.90810000
H      23.04570000     21.95860000     19.95950000
H      24.62430000     21.43290000     19.77860000
