14
pbedef2svp=-249.16629250166 b3lypdef2svp=-249.33553852127 b3lypvdz=-249.52859417626
N      29.34000000     17.59400000     19.07600000
C      28.10800000     17.43900000     18.27600000
C      29.01500000     21.65700000     22.28800000
C      29.94200000     21.10600000     21.24000000
O      29.47000000     20.67700000     20.19000000
H      29.44000000     18.40200000     19.65700000
H      27.85100000     16.37300000     18.19200000
H      30.07790000     16.91940000     19.05720000
H      28.30110000     17.84390000     17.27160000
H      27.25840000     17.97950000     18.71880000
H      29.58400000     22.29400000     22.98200000
H      28.21680000     22.24540000     21.81190000
H      28.53100000     20.84640000     22.85260000
H      31.02640000     21.09260000     21.42400000
