6
pbedef2svp=-169.57178952063 b3lypdef2svp=-169.6736965818 b3lypvdz=-169.80815624113
N      37.49900000     25.74300000     14.57100000
C      36.97500000     26.82600000     15.10700000
O      37.57900000     27.92600000     15.15900000
H      36.99800000     24.88000000     14.63700000
H      38.38120000     25.75530000     14.10030000
H      35.97690000     26.74570000     15.56230000
