15
pbedef2svp=-324.20335166858
C      26.54100000     18.73200000      9.25100000
O      26.33300000     18.53600000     10.45700000
C      30.49100000     19.16200000     12.04000000
O      29.36700000     19.52300000     12.44100000
N      26.58500000     20.06300000     13.37800000
C      25.59400000     21.10900000     13.07200000
H      26.02170000     19.52920000      8.69890000
H      27.22310000     18.08900000      8.67540000
H      30.71360000     19.10430000     10.96430000
H      31.33860000     18.97400000     12.71540000
H      27.36400000     19.94300000     12.76300000
H      25.51600000     21.80500000     13.92000000
H      26.50680000     19.46850000     14.17830000
H      24.61890000     20.62400000     12.91710000
H      25.94320000     21.66420000     12.18890000
