18
pbedef2svp=-235.27130192972 b3lypdef2svp=-235.44655044939 b3lypvdz=-235.62361610588
C      26.92600000     18.19100000     18.89200000
C      26.62100000     17.79900000     20.35200000
C      24.51700000     21.47000000     20.03000000
C      24.27200000     21.54400000     17.64400000
C      25.05200000     21.28500000     18.77600000
C      23.20400000     21.90700000     20.19200000
H      27.14900000     19.26800000     18.86300000
H      26.03200000     17.98500000     18.28500000
H      27.54500000     17.79200000     20.94900000
H      25.90200000     18.50300000     20.79700000
H      27.77560000     17.65050000     18.44920000
H      26.18900000     16.78870000     20.30110000
H      24.69800000     21.42900000     16.65800000
H      26.07000000     20.94100000     18.66600000
H      22.79100000     22.04900000     21.18000000
H      25.09870000     21.33630000     20.95400000
H      23.22570000     21.86490000     17.75520000
H      22.59530000     22.10540000     19.29750000
