13
pbedef2svp=-231.9778703573 b3lypdef2svp=-232.13359573993 b3lypvdz=-232.31354861813
C      39.67600000     35.54700000     12.07200000
C      40.67500000     35.52700000     13.20000000
O      40.81400000     36.52800000     13.91100000
C      38.29000000     35.81400000     12.69800000
C      37.15600000     35.98500000     11.68800000
H      39.91600000     36.39600000     11.41500000
H      38.04100000     34.96600000     13.35300000
H      38.35600000     36.73400000     13.29800000
H      37.25300000     35.21500000     10.90800000
H      36.19400000     35.86100000     12.20700000
H      39.66000000     34.62450000     11.47300000
H      41.20850000     34.58460000     13.39280000
H      37.18200000     36.97790000     11.21530000
