7
pbedef2svp=-153.52244278494 b3lypdef2svp=-153.62199835503 b3lypvdz=-153.743879289
C      23.46100000     17.33100000     16.74100000
C      24.18400000     16.01600000     16.61900000
O      25.30300000     15.89400000     17.15200000
H      24.21600000     18.13000000     16.70200000
H      22.96200000     17.34600000     17.72100000
H      22.70120000     17.55460000     15.97760000
H      23.65440000     15.22930000     16.06170000
