16
pbedef2svp=-325.21452096329
N      24.79000000     32.02100000     13.61800000
C      23.50900000     32.22400000     13.29000000
O      22.54400000     31.94200000     14.03400000
C      21.44700000     27.86900000     16.02600000
C      21.32500000     28.81300000     15.00500000
C      20.63800000     26.73500000     16.05300000
C      20.36900000     28.64800000     14.00100000
H      25.50600000     32.15100000     12.93200000
H      25.03460000     31.74030000     14.54610000
H      23.29520000     32.61130000     12.28290000
H      21.97400000     29.67600000     14.99200000
H      20.75100000     26.00800000     16.84400000
H      20.22700000     29.39700000     13.23600000
H      22.20570000     28.00520000     16.81080000
H      19.88410000     26.58120000     15.26690000
H      19.76570000     27.72830000     14.01650000
