13
pbedef2svp=-174.09680016107 b3lypdef2svp=-174.2218546381 b3lypvdz=-174.35126083131
N      26.58500000     20.06300000     13.37800000
C      25.59400000     21.10900000     13.07200000
C      26.08400000     21.88800000     11.83300000
C      27.42600000     22.61600000     11.90200000
H      27.36400000     19.94300000     12.76300000
H      25.51600000     21.80500000     13.92000000
H      26.14900000     21.16800000     11.00400000
H      25.31800000     22.64300000     11.60300000
H      28.23400000     21.90500000     12.13000000
H      26.50680000     19.46850000     14.17830000
H      24.61890000     20.62400000     12.91710000
H      27.63490000     23.13470000     10.95470000
H      27.39290000     23.41200000     12.66050000
