7
pbedef2svp=-95.64010014513 b3lypdef2svp=-95.70956080947 b3lypvdz=-95.78086245896
N      38.41900000     30.37300000     23.34100000
C      37.73800000     31.63700000     23.71200000
H      38.91700000     30.30600000     22.47600000
H      37.65300000     31.71100000     24.80600000
H      38.37820000     29.58820000     23.95940000
H      36.73540000     31.71200000     23.26570000
H      38.30060000     32.50360000     23.33460000
