16
pbedef2svp=-362.250991997
C      37.44100000     28.88200000     11.05200000
O      38.02000000     29.77200000     10.38200000
N      41.00100000     29.87800000     11.93100000
C      41.71800000     30.02200000     10.64300000
C      41.39800000     28.78000000      9.81000000
C      42.62600000     28.55700000      8.92800000
O      43.66600000     28.26200000      9.53900000
H      37.46240000     27.81700000     10.77770000
H      36.92150000     29.11950000     11.99210000
H      40.44300000     29.06500000     12.10000000
H      42.79800000     30.00900000     10.85200000
H      41.23000000     27.91100000     10.46300000
H      40.50500000     28.95100000      9.19100000
H      41.07040000     30.58720000     12.63260000
H      41.48610000     30.97850000     10.15170000
H      42.45250000     28.78280000      7.86550000
