9
pbedef2svp=-208.75598667564 b3lypdef2svp=-208.88829062736 b3lypvdz=-209.0525964328
N      39.65500000     34.33500000     11.28500000
C      39.67600000     35.54700000     12.07200000
C      40.67500000     35.52700000     13.20000000
O      40.81400000     36.52800000     13.91100000
H      39.48700000     33.47600000     11.76900000
H      39.91600000     36.39600000     11.41500000
H      39.79450000     34.28590000     10.29600000
H      38.68860000     35.73720000     12.51800000
H      41.20850000     34.58460000     13.39280000
