9
pbedef2svp=-208.80930652484 b3lypdef2svp=-208.93913902284 b3lypvdz=-209.10299777915
C      22.92400000     18.58300000     12.02500000
C      22.22900000     18.24400000     13.32500000
O      20.96300000     18.25300000     13.39500000
N      22.99700000     17.97800000     14.36600000
H      22.28300000     19.29200000     11.48000000
H      23.99100000     18.00600000     14.25900000
H      23.89930000     19.06470000     12.18880000
H      23.02070000     17.68240000     11.40090000
H      22.60770000     17.74940000     15.25830000
