15
pbedef2svp=-378.37199736233
N      31.69700000     18.31100000     20.40600000
C      32.12800000     19.36400000     19.75000000
O      32.54600000     19.31700000     18.55800000
N      31.11300000     20.86300000     15.86000000
C      31.28800000     22.20100000     16.41700000
C      31.59300000     20.55300000     14.65500000
O      32.15900000     21.31100000     13.86100000
H      31.43900000     18.43200000     21.36400000
H      31.60950000     17.39610000     20.01200000
H      32.22500000     20.30980000     20.30330000
H      30.62600000     20.16900000     16.39000000
H      30.85300000     22.93800000     15.72600000
H      32.35780000     22.42960000     16.53200000
H      30.74430000     22.27110000     17.37060000
H      31.45430000     19.49380000     14.39250000
