16
pbedef2svp=-271.15735157122
C      23.21200000     32.76200000     11.89100000
C      23.50900000     32.22400000     13.29000000
O      22.54400000     31.94200000     14.03400000
C      26.13600000     35.34600000      6.64000000
C      25.69500000     34.49800000      8.94600000
C      25.28800000     34.60900000      7.49900000
H      24.14700000     32.76300000     11.31200000
H      22.48450000     32.09600000     11.40400000
H      22.85770000     33.80140000     11.95590000
H      24.56230000     32.05710000     13.55970000
H      27.00600000     35.85800000      7.02300000
H      24.80600000     34.23900000      9.53900000
H      26.08400000     35.47300000      9.27400000
H      25.88200000     35.38180000      5.57030000
H      26.46770000     33.73610000      9.12610000
H      24.38410000     34.09960000      7.13380000
