13
pbedef2svp=-231.97688831992 b3lypdef2svp=-232.13237389598 b3lypvdz=-232.31224419534
C      29.18300000     39.72200000     21.58100000
C      29.60700000     41.18000000     19.46700000
C      30.07500000     42.53800000     18.98400000
O      29.58600000     43.57000000     19.48300000
C      29.91900000     40.89000000     20.93800000
H      29.62800000     38.78600000     21.21200000
H      28.51100000     41.16800000     19.37000000
H      30.99700000     40.68600000     21.01500000
H      29.67500000     41.79500000     21.51400000
H      29.27350000     39.74230000     22.67710000
H      28.11290000     39.72130000     21.32630000
H      29.99720000     40.35430000     18.85380000
H      30.82350000     42.56500000     18.17830000
