13
pbedef2svp=-265.21691257425
N      26.84900000     29.65600000      6.21700000
C      26.23500000     30.05800000      7.49700000
O      29.80900000     29.39500000      5.54500000
N      31.83400000     28.41200000      5.12500000
C      31.02200000     29.28800000      5.66500000
H      27.84300000     29.68800000      6.11500000
H      25.16500000     30.24200000      7.32000000
H      26.28340000     29.35170000      5.45050000
H      26.69170000     31.02500000      7.75460000
H      26.31330000     29.33410000      8.32150000
H      32.82200000     28.45600000      5.27400000
H      31.42440000     27.69750000      4.55790000
H      31.49180000     29.99600000      6.36360000
