18
pbedef2svp=-326.44232834563
C      23.81200000     34.03100000      5.67700000
C      24.14700000     33.96600000      7.03800000
C      21.90700000     30.56300000      5.88100000
C      21.46600000     30.95300000      7.26100000
O      21.06600000     32.11200000      7.53300000
N      21.67400000     30.03400000      8.19100000
C      21.41900000     30.25300000      9.62000000
H      22.94800000     33.51100000      5.29000000
H      23.51900000     33.41800000      7.72500000
H      24.45850000     34.62870000      5.01770000
H      25.05090000     34.47540000      7.40320000
H      22.89500000     31.02900000      5.75500000
H      22.02400000     29.14200000      7.90400000
H      20.41000000     30.65000000      9.80700000
H      22.05370000     29.49340000      5.67010000
H      21.28200000     31.02960000      5.10540000
H      22.19030000     30.94610000      9.98680000
H      21.57530000     29.29940000     10.14560000
