18
pbedef2svp=-326.48599538466 b3lypdef2svp=-326.70028033038 b3lypvdz=-326.95088692405
C      28.37500000     17.99900000     16.88700000
O      29.32600000     18.78600000     16.69000000
C      26.92600000     18.19100000     18.89200000
N      27.51000000     17.68900000     15.95400000
C      27.57400000     18.19200000     14.56300000
C      27.29900000     17.05500000     13.53300000
C      28.10800000     17.43900000     18.27600000
H      27.14900000     19.26800000     18.86300000
H      26.03200000     17.98500000     18.28500000
H      26.75900000     17.07400000     16.19600000
H      28.56000000     18.63600000     14.36100000
H      27.28300000     17.48700000     12.52200000
H      27.85100000     16.37300000     18.19200000
H      26.70840000     17.91140000     19.93340000
H      26.79760000     18.96560000     14.46990000
H      26.28680000     16.72790000     13.81300000
H      27.97910000     16.19060000     13.55110000
H      29.02550000     17.55440000     18.87180000
