13
pbedef2svp=-231.97106795219 b3lypdef2svp=-232.12647718948 b3lypvdz=-232.30667268339
C      25.14900000     31.60900000     14.98000000
C      25.69800000     32.87600000     15.66900000
O      26.15800000     33.73000000     14.89400000
C      26.31000000     30.59400000     14.96700000
C      26.29000000     29.48000000     13.96000000
H      24.28500000     31.20800000     15.53000000
H      27.23500000     31.16400000     14.79900000
H      26.34200000     30.12800000     15.96300000
H      26.46700000     29.91100000     12.96300000
H      24.87990000     31.91780000     13.95910000
H      25.63210000     32.93510000     16.76540000
H      27.07870000     28.73780000     14.15240000
H      25.30590000     28.98870000     13.95420000
