5
pbedef2svp=-40.41304714979 b3lypdef2svp=-40.44985787083 b3lypvdz=-40.47840527631
C      27.29900000     17.05500000     13.53300000
H      27.28300000     17.48700000     12.52200000
H      27.49310000     17.85740000     14.25990000
H      26.28680000     16.72790000     13.81300000
H      27.97910000     16.19060000     13.55110000
