14
pbedef2svp=-249.1608410388
C      35.61200000     30.57700000     28.04400000
N      35.04000000     30.25200000     26.73000000
C      38.36500000     29.33500000     24.15900000
O      37.68400000     29.39000000     25.22100000
C      39.06300000     28.06300000     23.69500000
H      36.60000000     30.10400000     28.14300000
H      34.94700000     30.20600000     28.83800000
H      35.16400000     30.85000000     25.93800000
H      35.71550000     31.66880000     28.12970000
H      34.51960000     29.40020000     26.67070000
H      38.35200000     27.23900000     23.85600000
H      38.40990000     30.19820000     23.47870000
H      39.29290000     28.08300000     22.61950000
H      39.97620000     27.79770000     24.24780000
