10
pbedef2svp=-134.87033590796 b3lypdef2svp=-134.96782766019 b3lypvdz=-135.06805298162
N      20.92400000     25.86200000      6.00600000
C      21.65600000     26.84700000      5.24000000
C      21.63100000     26.64200000      3.73100000
H      20.47700000     25.11200000      5.51900000
H      22.70900000     26.81500000      5.55600000
H      22.06200000     27.53200000      3.24900000
H      22.24200000     25.76100000      3.48700000
H      20.84740000     25.90110000      7.00230000
H      21.27490000     27.85040000      5.48060000
H      20.61700000     26.48570000      3.33430000
