16
pbedef2svp=-362.31598767983
C      27.15100000     33.36200000     10.65000000
O      26.35000000     32.77800000     11.39500000
O      23.57900000     31.32100000      9.55400000
C      21.63700000     28.92300000     10.35300000
N      22.24100000     31.87300000     11.24100000
C      21.41900000     30.25300000      9.62000000
C      22.50400000     31.22800000     10.13600000
H      26.87370000     33.41610000      9.58690000
H      28.06890000     33.84290000     11.01910000
H      22.57800000     28.46500000     10.01500000
H      21.68500000     29.10200000     11.43700000
H      21.34100000     31.75600000     11.66200000
H      20.41000000     30.65000000      9.80700000
H      20.79700000     28.24970000     10.12700000
H      22.90230000     32.47850000     11.68370000
H      21.61010000     30.08890000      8.54920000
