19
pbedef2svp=-252.55631887855 b3lypdef2svp=-252.73600556504 b3lypvdz=-252.92368320819
N      26.84900000     29.65600000      6.21700000
C      26.23500000     30.05800000      7.49700000
C      26.34400000     29.05000000      8.64500000
C      27.81000000     28.74800000      8.99900000
C      25.49100000     27.77100000      8.28700000
C      27.96700000     28.08700000     10.41700000
H      27.84300000     29.68800000      6.11500000
H      25.16500000     30.24200000      7.32000000
H      25.87900000     29.50700000      9.53100000
H      28.22100000     28.06200000      8.24300000
H      28.37700000     29.69100000      8.98500000
H      25.56300000     27.04000000      9.10600000
H      24.43900000     28.06000000      8.14500000
H      25.87600000     27.32100000      7.36000000
H      29.03100000     27.89400000     10.61600000
H      27.56800000     28.76600000     11.18400000
H      27.41100000     27.13800000     10.44300000
H      26.28340000     29.35170000      5.45050000
H      26.69170000     31.02500000      7.75460000
