14
pbedef2svp=-158.09088105545 b3lypdef2svp=-158.2115718574 b3lypvdz=-158.32745517079
C      30.41600000     28.91200000     17.98000000
C      30.20500000     30.16800000     17.12900000
C      28.76200000     29.57300000     19.90600000
C      29.15100000     28.65500000     18.75500000
H      31.24500000     29.08800000     18.68100000
H      31.11700000     30.37800000     16.55200000
H      29.36400000     30.00600000     16.43900000
H      29.98200000     31.02200000     17.78500000
H      28.81600000     30.60900000     19.54100000
H      29.23500000     27.64100000     19.17300000
H      28.32300000     28.68600000     18.03100000
H      30.64830000     28.03280000     17.36110000
H      29.45240000     29.47150000     20.75640000
H      27.72920000     29.38820000     20.23650000
