18
pbedef2svp=-326.49184896338 b3lypdef2svp=-326.70538664741 b3lypvdz=-326.95574600087
C      27.69100000     37.31500000     14.14300000
C      28.46900000     37.47500000     15.42000000
O      28.21300000     36.75300000     16.41100000
C      26.21900000     37.68400000     14.30700000
C      25.88400000     39.13900000     14.61500000
N      29.42600000     38.43000000     15.44600000
C      30.22500000     38.64300000     16.66200000
H      28.13900000     37.93800000     13.35500000
H      25.70800000     37.42000000     13.36900000
H      25.81700000     37.07300000     15.12800000
H      26.30200000     39.41600000     15.59400000
H      26.30900000     39.79000000     13.83700000
H      29.59100000     38.99300000     14.63600000
H      30.16200000     37.75100000     17.30200000
H      27.73490000     36.25610000     13.84830000
H      24.78990000     39.25080000     14.63420000
H      29.82170000     39.50280000     17.21700000
H      31.28290000     38.80740000     16.40920000
