16
pbedef2svp=-362.32239490272
C      31.40900000     32.68000000      6.44600000
O      32.61900000     32.81200000      6.12500000
N      30.88400000     31.48500000      6.66600000
C      31.67700000     30.27500000      6.63900000
C      26.23500000     30.05800000      7.49700000
C      26.88200000     31.42800000      7.86200000
O      27.90600000     31.71100000      7.26400000
H      29.90500000     31.41600000      6.85800000
H      32.72700000     30.46400000      6.36900000
H      30.74920000     33.55880000      6.49420000
H      31.20720000     29.56700000      5.94040000
H      31.59430000     29.85120000      7.65070000
H      25.16500000     30.24200000      7.32000000
H      26.69280000     29.75830000      6.54270000
H      26.31330000     29.33410000      8.32150000
H      26.32170000     31.98910000      8.62440000
