18
pbedef2svp=-326.44100106618 b3lypdef2svp=-326.65654706636 b3lypvdz=-326.90801939992
N      26.58500000     20.06300000     13.37800000
C      25.59400000     21.10900000     13.07200000
C      24.24100000     20.43600000     12.85700000
O      23.26400000     20.95100000     13.32900000
C      26.08400000     21.88800000     11.83300000
C      27.42600000     22.61600000     11.90200000
C      27.38000000     23.72100000     12.95500000
H      27.36400000     19.94300000     12.76300000
H      25.51600000     21.80500000     13.92000000
H      26.14900000     21.16800000     11.00400000
H      25.31800000     22.64300000     11.60300000
H      28.23400000     21.90500000     12.13000000
H      28.35200000     24.23400000     12.99200000
H      26.59400000     24.44400000     12.69300000
H      27.16100000     23.28100000     13.93900000
H      26.50680000     19.46850000     14.17830000
H      24.24020000     19.45520000     12.35890000
H      27.63490000     23.13470000     10.95470000
