9
pbedef2svp=-154.71946331256 b3lypdef2svp=-154.82541891556 b3lypvdz=-154.94596669658
C      31.74400000     38.87900000     16.29900000
O      31.73700000     40.25700000     15.82400000
C      32.26000000     37.96900000     15.17100000
H      32.36600000     38.76400000     17.19900000
H      32.61800000     40.51000000     15.57300000
H      33.32000000     38.19100000     14.97600000
H      32.15500000     36.91600000     15.47300000
H      31.67400000     38.14900000     14.25800000
H      30.68610000     38.71460000     16.55180000
