7
pbedef2svp=-153.52295626338 b3lypdef2svp=-153.6225648404 b3lypvdz=-153.74448683883
C      41.76500000     34.82900000     30.94400000
O      42.94500000     34.99400000     30.58300000
C      40.87300000     33.80200000     30.25300000
H      40.05800000     33.53600000     30.94300000
H      41.26790000     35.41060000     31.73440000
H      40.44030000     34.25790000     29.35020000
H      41.43310000     32.88560000     30.01540000
