16
pbedef2svp=-159.28006482035
C      22.12600000     29.06200000     18.18300000
C      22.49400000     28.05700000     17.10900000
C      25.93100000     25.84400000     18.95900000
C      26.20300000     26.08300000     17.47100000
H      21.95700000     30.04300000     17.71400000
H      23.42500000     28.39400000     16.63000000
H      22.66300000     27.08400000     17.59400000
H      22.88480000     29.15540000     18.97390000
H      21.20430000     28.75290000     18.69770000
H      21.73530000     27.92080000     16.32420000
H      25.90600000     26.81600000     19.47400000
H      25.39600000     26.69700000     17.04400000
H      27.16300000     26.60700000     17.35300000
H      26.24600000     25.11700000     16.94600000
H      26.73110000     25.23090000     19.39940000
H      24.94360000     25.36710000     19.04650000
