14
pbedef2svp=-191.27834645704 b3lypdef2svp=-191.41629832546 b3lypvdz=-191.55870332612
N      31.51000000     18.93600000     12.85200000
C      31.39800000     19.06400000     14.28600000
N      27.51000000     17.68900000     15.95400000
C      27.57400000     18.19200000     14.56300000
H      32.38900000     18.66700000     12.45900000
H      30.40500000     18.73500000     14.62700000
H      30.73940000     19.10690000     12.23800000
H      31.53670000     20.12320000     14.54850000
H      32.16550000     18.45290000     14.78340000
H      26.75900000     17.07400000     16.19600000
H      28.56000000     18.63600000     14.36100000
H      28.17060000     17.92570000     16.66650000
H      26.79760000     18.96560000     14.46990000
H      27.37990000     17.38960000     13.83610000
