22
pbedef2svp=-328.79172208378
C      27.33100000     29.31700000     20.36400000
O      27.10100000     28.34600000     21.09700000
C      25.93100000     25.84400000     18.95900000
C      26.20300000     26.08300000     17.47100000
N      23.88000000     26.72700000     23.85100000
C      25.34900000     26.87200000     23.64300000
C      26.07000000     27.02500000     24.96000000
H      28.36380000     29.50180000     20.03350000
H      26.59060000     30.07400000     20.06620000
H      25.90600000     26.81600000     19.47400000
H      25.39600000     26.69700000     17.04400000
H      27.16300000     26.60700000     17.35300000
H      26.24600000     25.11700000     16.94600000
H      26.73110000     25.23090000     19.39940000
H      24.94360000     25.36710000     19.04650000
H      23.53200000     26.35300000     24.71100000
H      25.55800000     27.73800000     22.99800000
H      25.61000000     27.84000000     25.53800000
H      25.99900000     26.08600000     25.52900000
H      23.24130000     27.00270000     23.13260000
H      25.63300000     25.94500000     23.12330000
H      27.12760000     27.26110000     24.77100000
