9
pbedef2svp=-208.80993210923 b3lypdef2svp=-208.94039097432 b3lypvdz=-209.10402756842
N      20.71700000     22.96400000     12.26000000
C      19.06500000     21.35200000     12.99900000
C      19.44200000     22.74500000     12.51000000
O      18.57100000     23.61000000     12.28900000
H      21.38500000     22.24600000     12.45600000
H      19.16200000     20.67100000     12.14100000
H      21.02970000     23.83380000     11.87830000
H      19.75590000     21.00360000     13.78080000
H      18.01610000     21.30240000     13.32660000
