12
pbedef2svp=-193.9219507656
C      30.83200000     23.69900000     18.35800000
C      30.52000000     22.30000000     17.76400000
C      29.94200000     21.10600000     21.24000000
O      29.47000000     20.67700000     20.19000000
H      30.30700000     23.81600000     19.31800000
H      31.91600000     23.79500000     18.51900000
H      30.49400000     24.47800000     17.65800000
H      30.88200000     21.52100000     18.45100000
H      31.06370000     22.22990000     16.81040000
H      29.45860000     22.11980000     17.53830000
H      29.26390000     21.50910000     22.00660000
H      31.02640000     21.09260000     21.42400000
