15
pbedef2svp=-233.1543959165
C      30.92500000     34.30400000     17.75300000
C      29.80100000     34.14500000     18.82900000
C      31.20000000     30.32900000     22.78000000
C      30.21000000     30.50900000     21.65000000
O      29.97800000     31.72600000     21.26900000
H      30.79800000     33.52100000     16.99100000
H      30.82500000     35.29300000     17.28200000
H      29.80100000     33.10000000     19.17200000
H      31.93390000     34.21800000     18.18280000
H      28.83900000     34.37270000     18.34650000
H      29.98510000     34.80310000     19.69100000
H      31.35500000     29.25000000     22.92500000
H      32.13930000     30.76110000     22.40440000
H      30.94270000     30.76780000     23.75530000
H      29.78370000     29.62250000     21.15760000
