15
pbedef2svp=-233.16277987025
C      35.66700000     20.38300000     17.44700000
C      37.12800000     20.29300000     17.87200000
O      33.54400000     23.08600000     20.88300000
C      33.63800000     20.71600000     21.24200000
C      34.17400000     22.12900000     21.35400000
H      35.07400000     19.98200000     18.28200000
H      35.55700000     19.72700000     16.57100000
H      37.75600000     20.74400000     17.09000000
H      37.26100000     20.84600000     18.81300000
H      35.20970000     21.34580000     17.17520000
H      37.44130000     19.24960000     18.02400000
H      33.51900000     20.30000000     22.25300000
H      34.35900000     20.10600000     20.67800000
H      32.66610000     20.68350000     20.72780000
H      35.12210000     22.29880000     21.88520000
