15
pbedef2svp=-175.28099574087
N      34.73400000     25.82200000     14.94900000
C      35.59600000     26.71500000     15.73600000
C      33.28400000     30.50400000     14.55200000
C      34.22800000     30.63000000     13.31900000
H      34.36300000     24.99500000     15.37200000
H      35.14500000     27.71800000     15.76300000
H      34.51330000     26.03060000     13.99620000
H      36.59410000     26.79530000     15.28070000
H      35.68160000     26.34670000     16.76900000
H      32.24400000     30.40100000     14.20900000
H      33.56500000     29.61800000     15.14000000
H      33.37700000     31.40400000     15.17800000
H      33.94700000     31.51600000     12.73100000
H      34.13500000     29.73000000     12.69300000
H      35.26830000     30.73260000     13.66130000
