13
pbedef2svp=-323.09304791249
C      27.33100000     29.31700000     20.36400000
O      27.10100000     28.34600000     21.09700000
N      27.77700000     28.58500000     26.73900000
C      27.55300000     27.35600000     24.69500000
C      28.26200000     27.57600000     26.02000000
O      29.18900000     26.84000000     26.33500000
H      28.36380000     29.50180000     20.03350000
H      26.59060000     30.07400000     20.06620000
H      28.17600000     28.80100000     27.63000000
H      27.01300000     29.12700000     26.38800000
H      28.02600000     26.52000000     24.15900000
H      27.62300000     28.26900000     24.08500000
H      26.49540000     27.11990000     24.88400000
