20
pbedef2svp=-290.50295875435 b3lypdef2svp=-290.71064764991 b3lypvdz=-290.93046762198
C      24.51700000     21.47000000     20.03000000
C      24.27200000     21.54400000     17.64400000
C      25.05200000     21.28500000     18.77600000
C      23.20400000     21.90700000     20.19200000
C      26.92600000     18.19100000     18.89200000
N      29.34000000     17.59400000     19.07600000
C      28.10800000     17.43900000     18.27600000
H      24.69800000     21.42900000     16.65800000
H      26.07000000     20.94100000     18.66600000
H      22.79100000     22.04900000     21.18000000
H      25.09870000     21.33630000     20.95400000
H      23.22570000     21.86490000     17.75520000
H      22.59530000     22.10540000     19.29750000
H      27.14900000     19.26800000     18.86300000
H      26.03200000     17.98500000     18.28500000
H      29.44000000     18.40200000     19.65700000
H      27.85100000     16.37300000     18.19200000
H      26.70840000     17.91140000     19.93340000
H      30.07790000     16.91940000     19.05720000
H      28.30110000     17.84390000     17.27160000
