14
pbedef2svp=-361.13272170177 b3lypdef2svp=-361.35273593978 b3lypvdz=-361.63899782276
N      30.12400000     34.53300000     21.19100000
C      30.47900000     35.36900000     22.37400000
C      31.90100000     34.91000000     22.72800000
O      32.19000000     33.69600000     22.63500000
C      29.80100000     34.14500000     18.82900000
C      30.05200000     35.04200000     20.00400000
O      30.10500000     36.30500000     19.78800000
H      29.93800000     33.55900000     21.31800000
H      30.50500000     36.43000000     22.08400000
H      29.80100000     33.10000000     19.17200000
H      29.75060000     35.23300000     23.18700000
H      32.62350000     35.68200000     23.03140000
H      28.83900000     34.37270000     18.34650000
H      30.59150000     34.25680000     18.07230000
