15
pbedef2svp=-287.20669369252 b3lypdef2svp=-287.39494265675 b3lypvdz=-287.61783008668
N      23.88000000     26.72700000     23.85100000
C      25.34900000     26.87200000     23.64300000
C      26.07000000     27.02500000     24.96000000
C      27.55300000     27.35600000     24.69500000
C      28.26200000     27.57600000     26.02000000
O      29.18900000     26.84000000     26.33500000
H      23.53200000     26.35300000     24.71100000
H      25.55800000     27.73800000     22.99800000
H      25.61000000     27.84000000     25.53800000
H      25.99900000     26.08600000     25.52900000
H      28.02600000     26.52000000     24.15900000
H      27.62300000     28.26900000     24.08500000
H      23.24130000     27.00270000     23.13260000
H      25.63300000     25.94500000     23.12330000
H      27.86100000     28.41020000     26.61440000
