12
pbedef2svp=-248.03499271484 b3lypdef2svp=-248.19363718493 b3lypvdz=-248.38608047569
C      27.57400000     18.19200000     14.56300000
C      26.48200000     19.28000000     14.43200000
O      25.60900000     19.38800000     15.28700000
C      27.29900000     17.05500000     13.53300000
N      26.58500000     20.06300000     13.37800000
H      28.56000000     18.63600000     14.36100000
H      27.28300000     17.48700000     12.52200000
H      27.36400000     19.94300000     12.76300000
H      27.52640000     17.81830000     15.59650000
H      26.28680000     16.72790000     13.81300000
H      27.97910000     16.19060000     13.55110000
H      25.91220000     20.77310000     13.17030000
