17
pbedef2svp=-342.49758212514 b3lypdef2svp=-342.71651587039 b3lypvdz=-342.97980123011
N      26.43600000     30.23200000     20.00400000
C      25.03400000     30.17000000     20.40100000
C      24.10100000     30.14900000     19.19600000
O      24.19600000     30.94800000     18.28700000
N      23.14100000     29.18700000     19.24100000
C      22.12600000     29.06200000     18.18300000
C      22.49400000     28.05700000     17.10900000
H      26.73800000     30.99700000     19.43500000
H      24.85900000     29.26400000     21.00000000
H      23.12400000     28.54900000     20.01100000
H      21.95700000     30.04300000     17.71400000
H      23.42500000     28.39400000     16.63000000
H      22.66300000     27.08400000     17.59400000
H      27.10910000     29.54380000     20.27480000
H      24.76010000     31.04090000     21.01460000
H      21.20430000     28.75290000     18.69770000
H      21.73530000     27.92080000     16.32420000
