20
pbedef2svp=-273.56446568743
C      30.83200000     23.69900000     18.35800000
C      30.52000000     22.30000000     17.76400000
C      34.50900000     26.07700000     19.36000000
C      33.20600000     26.31100000     20.12200000
O      33.54400000     23.08600000     20.88300000
C      34.17400000     22.12900000     21.35400000
H      30.30700000     23.81600000     19.31800000
H      31.91600000     23.79500000     18.51900000
H      30.49400000     24.47800000     17.65800000
H      30.88200000     21.52100000     18.45100000
H      31.06370000     22.22990000     16.81040000
H      29.45860000     22.11980000     17.53830000
H      34.78800000     25.01600000     19.43700000
H      35.30300000     26.69700000     19.80200000
H      32.92400000     27.37300000     20.07200000
H      32.40100000     25.69700000     19.69200000
H      34.38860000     26.34390000     18.29970000
H      33.38860000     26.01700000     21.16610000
H      33.78490000     21.10330000     21.27270000
H      35.12210000     22.29880000     21.88520000
