13
pbedef2svp=-269.04999628106 b3lypdef2svp=-269.22637660091 b3lypvdz=-269.43702614132
C      20.26800000     26.58900000      1.65600000
C      19.20200000     25.85700000      0.89100000
C      21.15600000     30.72600000      2.31100000
O      19.94200000     30.79300000      2.17000000
O      21.95400000     30.15200000      1.53500000
H      20.17600000     27.66100000      1.42700000
H      21.24600000     26.22300000      1.31100000
H      19.46200000     25.84600000     -0.17800000
H      19.13000000     24.82400000      1.26200000
H      20.22630000     26.46960000      2.74870000
H      18.23390000     26.36160000      1.02610000
H      21.47300000     29.77100000      0.81000000
H      21.67540000     31.17990000      3.16790000
