23
pbedef2svp=-312.78795136076
C      28.40700000     22.94800000     16.36600000
C      29.00600000     22.04300000     17.44200000
C      26.82600000     24.52100000     21.01200000
C      27.04300000     24.99200000     19.57100000
C      24.51700000     21.47000000     20.03000000
O      25.24800000     21.30200000     21.19100000
C      25.05200000     21.28500000     18.77600000
H      27.34900000     22.68900000     16.21600000
H      28.48600000     23.99800000     16.68500000
H      28.95600000     22.80900000     15.42300000
H      28.90200000     21.00100000     17.10700000
H      28.43100000     22.19000000     18.36800000
H      30.06740000     22.22320000     17.66770000
H      25.96700000     23.83400000     21.00400000
H      27.96900000     25.58500000     19.54900000
H      27.16400000     24.09800000     18.94200000
H      26.55630000     25.39350000     21.62530000
H      27.67130000     23.98540000     21.46870000
H      26.24290000     25.60510000     19.13060000
H      26.12400000     21.00400000     20.97400000
H      26.07000000     20.94100000     18.66600000
H      23.48040000     21.81500000     20.15790000
H      24.43870000     21.48870000     17.88590000
