15
pbedef2svp=-378.38461147944
C      20.14200000     21.59000000     15.14900000
O      19.49900000     22.64500000     15.32100000
N      19.99300000     20.88400000     14.04900000
N      24.24000000     19.23300000     12.24600000
C      25.59400000     21.10900000     13.07200000
C      24.24100000     20.43600000     12.85700000
O      23.26400000     20.95100000     13.32900000
H      20.50600000     20.03400000     13.92400000
H      20.82360000     21.26920000     15.95060000
H      19.36490000     21.20080000     13.33830000
H      25.09100000     18.79700000     11.95400000
H      25.51600000     21.80500000     13.92000000
H      23.35340000     18.79510000     12.09710000
H      26.33400000     20.32790000     13.30050000
H      25.94320000     21.66420000     12.18890000
