9
pbedef2svp=-208.80916138183 b3lypdef2svp=-208.93894992348 b3lypvdz=-209.10277215014
C      38.36500000     29.33500000     24.15900000
O      37.68400000     29.39000000     25.22100000
N      38.41900000     30.37300000     23.34100000
C      39.06300000     28.06300000     23.69500000
H      38.91700000     30.30600000     22.47600000
H      38.35200000     27.23900000     23.85600000
H      37.95980000     31.22540000     23.59120000
H      39.29290000     28.08300000     22.61950000
H      39.97620000     27.79770000     24.24780000
