6
pbedef2svp=-169.57227663658 b3lypdef2svp=-169.67436471695 b3lypvdz=-169.80875494908
N      32.76300000     35.83100000     23.09000000
C      31.90100000     34.91000000     22.72800000
O      32.19000000     33.69600000     22.63500000
H      32.48200000     36.79100000     23.10200000
H      33.69650000     35.58850000     23.35410000
H      30.88240000     35.23880000     22.47440000
