13
pbedef2svp=-269.05081073611
C      21.65600000     26.84700000      5.24000000
C      21.63100000     26.64200000      3.73100000
C      21.15600000     30.72600000      2.31100000
O      19.94200000     30.79300000      2.17000000
O      21.95400000     30.15200000      1.53500000
H      22.70900000     26.81500000      5.55600000
H      22.06200000     27.53200000      3.24900000
H      22.24200000     25.76100000      3.48700000
H      21.09940000     26.09800000      5.82240000
H      21.27490000     27.85040000      5.48060000
H      20.61700000     26.48570000      3.33430000
H      21.47300000     29.77100000      0.81000000
H      21.67540000     31.17990000      3.16790000
