11
pbedef2svp=-118.86830149878 b3lypdef2svp=-118.96147437313 b3lypvdz=-119.0483199463
C      31.68400000     26.74900000     13.34200000
C      31.15200000     24.42100000     12.47700000
C      32.06000000     25.25700000     13.36400000
H      30.62600000     26.86500000     13.61900000
H      32.31300000     27.29600000     14.06000000
H      31.84500000     27.15300000     12.33100000
H      30.10600000     24.56300000     12.78500000
H      31.27200000     24.73600000     11.43000000
H      31.42200000     23.35900000     12.57400000
H      31.94400000     24.89900000     14.39800000
H      33.11820000     25.14210000     13.08670000
