11
pbedef2svp=-358.99043520659 b3lypdef2svp=-359.2029997987 b3lypvdz=-359.49095610842
C      24.18400000     16.01600000     16.61900000
O      25.30300000     15.89400000     17.15200000
O      23.57200000     15.10700000     15.97500000
C      28.37500000     17.99900000     16.88700000
O      29.32600000     18.78600000     16.69000000
N      27.51000000     17.68900000     15.95400000
H      24.10000000     14.31700000     15.96200000
H      23.65580000     16.97670000     16.70810000
H      26.75900000     17.07400000     16.19600000
H      28.18190000     17.59410000     17.89140000
H      27.55320000     18.02870000     15.01450000
