14
pbedef2svp=-249.16602493316 b3lypdef2svp=-249.33441585538 b3lypvdz=-249.52756066823
N      30.31000000     25.45800000      5.38400000
C      30.28800000     24.24500000      6.19300000
C      26.26600000     25.41300000      2.84200000
C      26.91300000     26.63900000      3.53100000
O      27.88600000     26.46300000      4.26300000
H      29.44600000     25.83300000      5.04800000
H      31.28700000     23.78400000      6.19600000
H      31.16300000     25.92680000      5.15450000
H      29.56540000     23.51590000      5.79770000
H      30.01650000     24.48820000      7.23090000
H      25.88000000     25.74300000      1.86700000
H      27.06770000     24.67930000      2.67180000
H      25.42290000     25.02360000      3.43160000
H      26.42360000     27.59660000      3.29980000
