16
pbedef2svp=-362.32794851151 b3lypdef2svp=-362.55778527224 b3lypvdz=-362.84299561331
C      30.32000000     16.69800000     19.05100000
O      30.19800000     15.65700000     18.36600000
N      29.34000000     17.59400000     19.07600000
C      29.01500000     21.65700000     22.28800000
C      29.94200000     21.10600000     21.24000000
O      29.47000000     20.67700000     20.19000000
C      28.34800000     20.54000000     23.06600000
H      29.44000000     18.40200000     19.65700000
H      31.24010000     16.89260000     19.62160000
H      28.50590000     17.48910000     18.53440000
H      29.58400000     22.29400000     22.98200000
H      27.77300000     21.00700000     23.87900000
H      27.66000000     20.02800000     22.37700000
H      28.21680000     22.24540000     21.81190000
H      31.02640000     21.09260000     21.42400000
H      28.98750000     19.76900000     23.52050000
