15
pbedef2svp=-175.27606925773 b3lypdef2svp=-175.4096127441 b3lypvdz=-175.53880158177
C      25.64600000     31.67000000     22.42100000
C      25.77800000     30.43600000     23.35600000
N      23.88000000     26.72700000     23.85100000
C      25.34900000     26.87200000     23.64300000
H      26.63000000     31.89000000     21.98200000
H      25.30900000     32.53200000     23.01600000
H      26.50600000     30.65400000     24.15100000
H      24.80000000     30.21100000     23.80600000
H      26.12100000     29.56900000     22.77200000
H      24.92520000     31.49540000     21.60860000
H      23.53200000     26.35300000     24.71100000
H      25.55800000     27.73800000     22.99800000
H      23.24130000     27.00270000     23.13260000
H      25.63300000     25.94500000     23.12330000
H      25.87450000     26.98350000     24.60290000
