11
pbedef2svp=-118.86086837141 b3lypdef2svp=-118.95395187507 b3lypvdz=-119.04089425278
C      35.75200000     32.05400000     28.16000000
C      35.16100000     34.17400000     26.89600000
C      34.71700000     32.76000000     27.28600000
H      36.76100000     32.34900000     27.83600000
H      35.60300000     32.35000000     29.20900000
H      34.63100000     34.92600000     27.50000000
H      33.77000000     32.82600000     27.84100000
H      34.56500000     32.17100000     26.37000000
H      35.64850000     30.96220000     28.07430000
H      34.98910000     34.33030000     25.82080000
H      36.24860000     34.26190000     27.03500000
