17
pbedef2svp=-288.37303078041
C      36.33400000     31.74200000     23.08700000
O      35.57400000     32.61800000     23.48300000
C      35.75200000     32.05400000     28.16000000
N      34.93000000     34.38400000     25.45100000
C      35.16100000     34.17400000     26.89600000
C      34.71700000     32.76000000     27.28600000
H      37.33660000     31.66700000     23.53330000
H      36.05440000     31.00370000     22.32100000
H      36.76100000     32.34900000     27.83600000
H      35.60300000     32.35000000     29.20900000
H      35.33500000     33.73400000     24.80800000
H      34.63100000     34.92600000     27.50000000
H      33.77000000     32.82600000     27.84100000
H      34.56500000     32.17100000     26.37000000
H      35.64850000     30.96220000     28.07430000
H      34.39030000     35.14080000     25.08230000
H      36.24860000     34.26190000     27.03500000
