12
pbedef2svp=-248.03673701215 b3lypdef2svp=-248.19545400154 b3lypvdz=-248.38787960177
N      27.77700000     28.58500000     26.73900000
C      26.07000000     27.02500000     24.96000000
C      27.55300000     27.35600000     24.69500000
C      28.26200000     27.57600000     26.02000000
O      29.18900000     26.84000000     26.33500000
H      28.17600000     28.80100000     27.63000000
H      27.01300000     29.12700000     26.38800000
H      25.61000000     27.84000000     25.53800000
H      25.99900000     26.08600000     25.52900000
H      28.02600000     26.52000000     24.15900000
H      27.62300000     28.26900000     24.08500000
H      25.54450000     26.91350000     24.00010000
