6
pbedef2svp=-169.57091191303 b3lypdef2svp=-169.67306141883 b3lypvdz=-169.80746489119
C      20.08300000     28.72900000     23.32100000
O      19.99100000     28.58400000     24.56100000
N      20.80100000     27.93100000     22.57800000
H      20.84300000     28.09900000     21.59300000
H      19.58350000     29.57980000     22.83460000
H      21.31100000     27.15820000     22.95590000
