9
pbedef2svp=-208.79435238481 b3lypdef2svp=-208.92463191482 b3lypvdz=-209.08788682558
N      41.18900000     32.08500000     19.03100000
C      41.46100000     30.75100000     19.59400000
C      40.44900000     32.27800000     17.94500000
O      39.93600000     31.33600000     17.31500000
H      42.11200000     30.14800000     18.94400000
H      41.61300000     32.82380000     19.55480000
H      40.52370000     30.22540000     19.82890000
H      41.97880000     31.02680000     20.52450000
H      40.28750000     33.31930000     17.62930000
