12
pbedef2svp=-248.031723659 b3lypdef2svp=-248.19045893558 b3lypvdz=-248.3827260105
C      26.23500000     30.05800000      7.49700000
C      26.88200000     31.42800000      7.86200000
O      27.90600000     31.71100000      7.26400000
C      26.34400000     29.05000000      8.64500000
N      26.21400000     32.09700000      8.77100000
H      25.16500000     30.24200000      7.32000000
H      25.87900000     29.50700000      9.53100000
H      25.36900000     31.73600000      9.16600000
H      26.69280000     29.75830000      6.54270000
H      27.39250000     28.83400000      8.89820000
H      25.74960000     28.15870000      8.39550000
H      26.58310000     32.98270000      9.05280000
