9
pbedef2svp=-154.72053268804 b3lypdef2svp=-154.82658020618 b3lypvdz=-154.94696773014
C      28.11300000     39.04900000     10.01500000
O      27.28000000     39.72200000     10.99600000
C      27.58800000     37.63500000      9.71500000
H      28.15100000     39.62800000      9.08100000
H      26.38900000     39.77600000     10.67200000
H      26.58500000     37.70300000      9.26900000
H      28.26800000     37.13300000      9.01200000
H      27.53600000     37.05800000     10.65000000
H      29.11730000     39.02860000     10.46340000
