13
pbedef2svp=-174.09915372723 b3lypdef2svp=-174.224149838 b3lypvdz=-174.35370016137
C      29.54200000     39.02000000     10.65300000
C      28.11300000     39.04900000     10.01500000
C      27.58800000     37.63500000      9.71500000
N      30.16300000     40.33800000     10.88600000
H      29.47700000     38.47800000     11.60800000
H      28.15100000     39.62800000      9.08100000
H      26.58500000     37.70300000      9.26900000
H      28.26800000     37.13300000      9.01200000
H      27.53600000     37.05800000     10.65000000
H      30.35300000     40.96100000     10.12800000
H      30.22710000     38.47380000      9.98800000
H      27.48210000     39.55870000     10.75800000
H      30.38720000     40.58650000     11.82830000
