15
pbedef2svp=-378.39297130057 b3lypdef2svp=-378.62464555362 b3lypvdz=-378.92276014002
N      31.69700000     18.31100000     20.40600000
C      32.12800000     19.36400000     19.75000000
O      32.54600000     19.31700000     18.55800000
N      33.54800000     21.52600000     16.95000000
C      31.28800000     22.20100000     16.41700000
C      32.77600000     22.51900000     16.57700000
O      33.23300000     23.65900000     16.38400000
H      31.43900000     18.43200000     21.36400000
H      31.60950000     17.39610000     20.01200000
H      32.22500000     20.30980000     20.30330000
H      33.14600000     20.63400000     17.15600000
H      30.85300000     22.93800000     15.72600000
H      34.53630000     21.65660000     17.02930000
H      31.15610000     21.19280000     15.99730000
H      30.74430000     22.27110000     17.37060000
