10
pbedef2svp=-134.87170282554 b3lypdef2svp=-134.96911106606 b3lypvdz=-135.06948156748
N      37.49900000     25.74300000     14.57100000
C      38.79400000     25.76100000     13.88000000
C      39.28500000     24.33600000     13.56600000
H      36.99800000     24.88000000     14.63700000
H      39.53500000     26.22600000     14.54600000
H      40.25500000     24.38700000     13.05000000
H      39.39800000     23.77200000     14.50400000
H      38.55200000     23.83000000     12.92000000
H      37.10120000     26.56530000     14.97800000
H      38.74620000     26.36250000     12.96030000
