7
pbedef2svp=-95.64011177873 b3lypdef2svp=-95.7096263158 b3lypvdz=-95.78093469586
N      34.73400000     25.82200000     14.94900000
C      35.59600000     26.71500000     15.73600000
H      34.36300000     24.99500000     15.37200000
H      35.14500000     27.71800000     15.76300000
H      34.51330000     26.03060000     13.99620000
H      36.59410000     26.79530000     15.28070000
H      35.68160000     26.34670000     16.76900000
