7
pbedef2svp=-153.52312493551 b3lypdef2svp=-153.6229851238 b3lypvdz=-153.74473474972
C      21.46000000     18.73700000     16.16300000
O      20.49700000     18.50600000     16.90000000
C      22.41800000     17.63800000     15.69300000
H      21.81600000     16.72700000     15.56300000
H      21.78600000     19.76470000     15.94510000
H      22.84630000     17.88950000     14.71150000
H      23.17780000     17.41440000     16.45640000
