9
pbedef2svp=-208.75441471567 b3lypdef2svp=-208.88569976684 b3lypvdz=-209.05066260971
N      41.00100000     29.87800000     11.93100000
C      41.71800000     30.02200000     10.64300000
C      41.39900000     31.33800000      9.96700000
O      42.26000000     32.03600000      9.38100000
H      40.44300000     29.06500000     12.10000000
H      42.79800000     30.00900000     10.85200000
H      41.07040000     30.58720000     12.63260000
H      41.48780000     29.12870000     10.04380000
H      40.35190000     31.67450000      9.98420000
