18
pbedef2svp=-326.47592803699 b3lypdef2svp=-326.68990430854 b3lypvdz=-326.94066120148
C      39.08000000     36.94100000     27.40600000
C      39.50200000     37.34000000     26.00200000
C      35.16100000     34.17400000     26.89600000
C      36.67100000     34.29600000     27.08900000
O      37.30500000     33.23300000     26.79500000
N      37.19700000     35.39700000     27.51300000
C      38.66800000     35.50200000     27.68000000
H      38.22400000     37.57700000     27.67600000
H      39.92700000     37.16400000     28.07100000
H      40.56300000     37.08500000     25.86300000
H      34.63100000     34.92600000     27.50000000
H      36.61300000     36.17900000     27.72900000
H      39.13700000     34.87600000     26.90700000
H      38.91040000     36.83880000     25.22170000
H      39.38330000     38.42890000     25.90130000
H      34.98910000     34.33030000     25.82080000
H      34.84230000     33.15910000     27.17590000
H      38.96280000     35.08940000     28.65620000
