15
pbedef2svp=-233.16396191581 b3lypdef2svp=-233.32776935283 b3lypvdz=-233.50717050246
C      26.08400000     21.88800000     11.83300000
C      27.42600000     22.61600000     11.90200000
C      26.54100000     18.73200000      9.25100000
O      26.33300000     18.53600000     10.45700000
C      25.82900000     19.82500000      8.49400000
H      26.14900000     21.16800000     11.00400000
H      25.31800000     22.64300000     11.60300000
H      28.23400000     21.90500000     12.13000000
H      25.73480000     21.33280000     12.71610000
H      27.63490000     23.13470000     10.95470000
H      27.39290000     23.41200000     12.66050000
H      25.66900000     20.69300000      9.15000000
H      27.22310000     18.08900000      8.67540000
H      26.37750000     20.12180000      7.58790000
H      24.86060000     19.47400000      8.10810000
