13
pbedef2svp=-591.83101387598 b3lypdef2svp=-592.08812270022 b3lypvdz=-592.36758815709
C      25.35300000     24.86000000      5.13400000
S      23.93000000     23.95900000      5.90400000
C      29.27900000     23.22700000      5.64100000
O      28.47800000     23.52200000      4.72500000
C      30.28800000     24.24500000      6.19300000
H      26.29500000     24.33800000      5.35600000
H      25.40300000     25.88800000      5.52200000
H      25.17680000     24.87460000      4.04830000
H      24.31650000     23.97770000      7.18690000
H      31.28700000     23.78400000      6.19600000
H      29.36350000     22.24810000      6.13550000
H      30.30460000     25.16000000      5.58270000
H      30.01650000     24.48820000      7.23090000
