16
pbedef2svp=-362.33522474565 b3lypdef2svp=-362.56504568627 b3lypvdz=-362.85016906117
N      34.93000000     34.38400000     25.45100000
C      34.14500000     35.47200000     23.48100000
C      34.23900000     35.35300000     24.97900000
O      33.70700000     36.19700000     25.72800000
C      36.33400000     31.74200000     23.08700000
O      35.57400000     32.61800000     23.48300000
C      37.73800000     31.63700000     23.71200000
H      35.33500000     33.73400000     24.80800000
H      34.41100000     34.50500000     23.02800000
H      35.08630000     34.24190000     26.42840000
H      33.11810000     35.73870000     23.19050000
H      34.82450000     36.23770000     23.07850000
H      37.65300000     31.71100000     24.80600000
H      36.05440000     31.00370000     22.32100000
H      38.24310000     30.69940000     23.43680000
H      38.30060000     32.50360000     23.33460000
