13
pbedef2svp=-174.09126716639 b3lypdef2svp=-174.21624307006 b3lypvdz=-174.34617654857
C      35.92600000     35.97900000     21.73700000
N      32.76300000     35.83100000     23.09000000
C      34.14500000     35.47200000     23.48100000
C      35.11400000     36.56400000     22.90700000
H      36.73600000     35.36100000     22.15200000
H      32.48200000     36.79100000     23.10200000
H      34.41100000     34.50500000     23.02800000
H      34.52600000     37.42200000     22.55000000
H      35.80200000     36.89500000     23.69900000
H      35.25950000     35.33270000     21.14700000
H      36.36930000     36.78820000     21.13810000
H      32.10620000     35.12920000     22.81420000
H      34.21370000     35.38510000     24.57540000
