15
pbedef2svp=-324.24709744203
C      21.63700000     28.92300000     10.35300000
O      20.54400000     28.04700000     10.05900000
N      20.29100000     24.87500000      9.50700000
C      20.08100000     24.77300000      8.03300000
C      20.82200000     25.91400000      7.33200000
O      21.32300000     26.83000000      8.00800000
H      22.57800000     28.46500000     10.01500000
H      21.68500000     29.10200000     11.43700000
H      20.74700000     27.53500000      9.28500000
H      21.48070000     29.87660000      9.82740000
H      19.77500000     25.56800000     10.01100000
H      20.52200000     23.82600000      7.68800000
H      20.91950000     24.28870000     10.01810000
H      19.00400000     24.74610000      7.81060000
H      20.90630000     25.87100000      6.23610000
