10
pbedef2svp=-134.87121323033 b3lypdef2svp=-134.96850193215 b3lypvdz=-135.06900934001
C      22.08500000     22.25400000     16.58100000
N      21.84600000     19.95400000     15.90500000
C      21.07900000     21.14900000     16.25100000
H      22.74300000     22.39600000     15.71100000
H      21.52900000     23.18300000     16.77600000
H      22.72300000     20.07900000     15.44100000
H      20.48400000     20.94600000     17.15300000
H      22.71140000     22.03330000     17.45790000
H      21.54970000     19.01970000     16.10310000
H      20.39740000     21.46980000     15.44940000
