8
pbedef2svp=-79.63818218289 b3lypdef2svp=-79.70330017373 b3lypvdz=-79.76096301588
C      25.59400000     21.10900000     13.07200000
C      26.08400000     21.88800000     11.83300000
H      25.51600000     21.80500000     13.92000000
H      26.14900000     21.16800000     11.00400000
H      25.31800000     22.64300000     11.60300000
H      26.33400000     20.32790000     13.30050000
H      24.61890000     20.62400000     12.91710000
H      27.04990000     22.41200000     11.88270000
