10
pbedef2svp=-192.75276493534 b3lypdef2svp=-192.88010179425 b3lypvdz=-193.03113811221
C      19.06500000     21.35200000     12.99900000
C      19.44200000     22.74500000     12.51000000
O      18.57100000     23.61000000     12.28900000
C      17.58600000     21.28200000     13.46100000
H      19.16200000     20.67100000     12.14100000
H      17.45300000     20.36800000     14.05800000
H      17.37700000     22.16200000     14.08700000
H      19.75590000     21.00360000     13.78080000
H      20.50640000     22.92780000     12.30130000
H      16.85880000     21.26470000     12.63590000
