23
pbedef2svp=-254.92044124202
C      29.96300000     33.31700000     12.81400000
C      30.21100000     33.39400000     14.30400000
N      29.42600000     38.43000000     15.44600000
C      30.22500000     38.64300000     16.66200000
C      30.92500000     34.30400000     17.75300000
C      29.80100000     34.14500000     18.82900000
H      30.75600000     33.85900000     12.27900000
H      31.18200000     32.93300000     14.53900000
H      30.22000000     34.44800000     14.62000000
H      29.41200000     32.85800000     14.83700000
H      28.99080000     33.78090000     12.59130000
H      29.95870000     32.26700000     12.48600000
H      29.59100000     38.99300000     14.63600000
H      30.16200000     37.75100000     17.30200000
H      28.71830000     37.72380000     15.42680000
H      29.82170000     39.50280000     17.21700000
H      31.28290000     38.80740000     16.40920000
H      30.79800000     33.52100000     16.99100000
H      30.82500000     35.29300000     17.28200000
H      29.80100000     33.10000000     19.17200000
H      31.93390000     34.21800000     18.18280000
H      28.83900000     34.37270000     18.34650000
H      29.98510000     34.80310000     19.69100000
