7
pbedef2svp=-95.63905413555 b3lypdef2svp=-95.70848386296 b3lypvdz=-95.7798370269
N      30.13200000     40.06900000     18.64200000
C      29.60700000     41.18000000     19.46700000
H      30.85500000     39.48300000     19.00900000
H      28.51100000     41.16800000     19.37000000
H      29.77630000     39.89420000     17.72390000
H      29.94670000     42.16570000     19.11640000
H      29.83110000     40.97170000     20.52360000
