15
pbedef2svp=-378.33574900256 b3lypdef2svp=-378.5700886341 b3lypvdz=-378.86855470419
N      24.24000000     19.23300000     12.24600000
C      24.24100000     20.43600000     12.85700000
O      23.26400000     20.95100000     13.32900000
C      26.54100000     18.73200000      9.25100000
O      26.33300000     18.53600000     10.45700000
N      26.55900000     20.22000000      7.28800000
C      25.82900000     19.82500000      8.49400000
H      25.09100000     18.79700000     11.95400000
H      23.35340000     18.79510000     12.09710000
H      25.21610000     20.92100000     13.01190000
H      25.66900000     20.69300000      9.15000000
H      27.22310000     18.08900000      8.67540000
H      27.51430000     20.51490000      7.30920000
H      25.98970000     20.14450000      6.46940000
H      24.86060000     19.47400000      8.10810000
