7
pbedef2svp=-153.5234490342 b3lypdef2svp=-153.62374231771 b3lypvdz=-153.74536765789
C      21.55000000     26.79600000     23.13300000
C      23.04600000     27.08700000     22.91300000
O      23.38300000     27.62700000     21.87000000
H      21.34400000     26.67500000     24.20700000
H      20.98910000     27.64600000     22.71730000
H      21.32540000     25.86490000     22.59200000
H      23.74860000     26.78370000     23.70320000
