17
pbedef2svp=-346.2597086917
C      40.55900000     28.58500000     25.67500000
O      40.71600000     29.80900000     25.45600000
C      37.73800000     31.63700000     23.71200000
C      36.33400000     31.74200000     23.08700000
O      35.57400000     32.61800000     23.48300000
C      38.52800000     32.85400000     23.18200000
C      39.91900000     32.85400000     23.84000000
H      40.40020000     27.93760000     24.80000000
H      40.55030000     28.15490000     26.68740000
H      37.65300000     31.71100000     24.80600000
H      38.63400000     32.78100000     22.09000000
H      37.99600000     33.78200000     23.43800000
H      39.79500000     32.89900000     24.93200000
H      40.44000000     31.92400000     23.56800000
H      38.24310000     30.69940000     23.43680000
H      36.05440000     31.00370000     22.32100000
H      40.52860000     33.71070000     23.51670000
