11
pbedef2svp=-209.95004311043 b3lypdef2svp=-210.08808628397 b3lypvdz=-210.2509744212
O      33.77800000     18.73900000     14.51600000
N      31.51000000     18.93600000     12.85200000
C      31.39800000     19.06400000     14.28600000
C      32.49200000     18.19300000     14.99500000
H      34.49400000     18.25400000     14.90900000
H      32.38900000     18.66700000     12.45900000
H      30.40500000     18.73500000     14.62700000
H      32.40300000     18.31600000     16.08500000
H      30.73940000     19.10690000     12.23800000
H      31.53670000     20.12320000     14.54850000
H      32.39220000     17.12890000     14.73480000
