9
pbedef2svp=-208.80249767062 b3lypdef2svp=-208.93241833499 b3lypvdz=-209.09627228379
N      30.12400000     34.53300000     21.19100000
C      29.80100000     34.14500000     18.82900000
C      30.05200000     35.04200000     20.00400000
O      30.10500000     36.30500000     19.78800000
H      29.93800000     33.55900000     21.31800000
H      29.80100000     33.10000000     19.17200000
H      30.36200000     35.09350000     21.98420000
H      28.83900000     34.37270000     18.34650000
H      30.59150000     34.25680000     18.07230000
