17
pbedef2svp=-288.39718053283
N      25.62100000     32.94500000     16.95000000
C      26.17900000     34.12700000     17.65000000
C      25.21400000     34.56500000     18.78000000
C      25.03400000     30.17000000     20.40100000
C      24.10100000     30.14900000     19.19600000
O      24.19600000     30.94800000     18.28700000
H      25.18900000     32.20800000     17.47000000
H      26.36900000     34.95900000     16.95600000
H      24.95100000     33.70000000     19.40600000
H      25.69000000     35.33700000     19.40200000
H      25.68090000     32.89130000     15.95320000
H      27.11220000     33.78430000     18.12090000
H      24.31050000     34.97140000     18.30190000
H      24.85900000     29.26400000     21.00000000
H      26.09140000     30.21680000     20.10160000
H      24.76010000     31.04090000     21.01460000
H      23.32440000     29.37080000     19.23240000
