11
pbedef2svp=-321.90367628146 b3lypdef2svp=-322.0957727574 b3lypvdz=-322.35251976723
N      20.29100000     24.87500000      9.50700000
C      20.08100000     24.77300000      8.03300000
C      20.82200000     25.91400000      7.33200000
O      21.32300000     26.83000000      8.00800000
C      21.11000000     24.11100000     10.17300000
O      21.84100000     23.19800000      9.68600000
H      19.77500000     25.56800000     10.01100000
H      20.52200000     23.82600000      7.68800000
H      19.00400000     24.74610000      7.81060000
H      20.90630000     25.87100000      6.23610000
H      21.16330000     24.22050000     11.26620000
