7
pbedef2svp=-153.52257600289 b3lypdef2svp=-153.62214674539 b3lypvdz=-153.74393011393
C      31.56800000     16.96200000     19.82500000
C      30.32000000     16.69800000     19.05100000
O      30.19800000     15.65700000     18.36600000
H      32.42200000     16.80400000     19.15000000
H      31.61200000     16.23500000     20.64900000
H      31.66420000     17.96840000     20.25840000
H      29.50830000     17.44010000     19.07170000
