13
pbedef2svp=-377.18669842925 b3lypdef2svp=-377.40966501587 b3lypvdz=-377.70734097443
C      29.94200000     21.10600000     21.24000000
O      29.47000000     20.67700000     20.19000000
N      31.23300000     21.09000000     21.45900000
C      32.26200000     20.67000000     20.51400000
C      32.12800000     19.36400000     19.75000000
O      32.54600000     19.31700000     18.55800000
N      31.69700000     18.31100000     20.40600000
H      31.54300000     21.39500000     22.36000000
H      32.31500000     21.45700000     19.74700000
H      31.43900000     18.43200000     21.36400000
H      29.26390000     21.50910000     22.00660000
H      33.23390000     20.70250000     21.02820000
H      31.60950000     17.39610000     20.01200000
