10
pbedef2svp=-192.74759545171 b3lypdef2svp=-192.87442923476 b3lypvdz=-193.02592244738
C      38.79400000     25.76100000     13.88000000
C      38.72800000     26.59100000     12.61100000
O      39.70400000     27.34600000     12.27700000
C      39.28500000     24.33600000     13.56600000
H      39.53500000     26.22600000     14.54600000
H      40.25500000     24.38700000     13.05000000
H      39.39800000     23.77200000     14.50400000
H      38.55200000     23.83000000     12.92000000
H      37.82360000     25.74750000     14.39780000
H      37.81870000     26.55110000     11.99320000
