13
pbedef2svp=-265.21828763664
N      29.72100000     43.67300000     15.88500000
C      28.97800000     43.96000000     14.67800000
N      30.13200000     40.06900000     18.64200000
C      29.66400000     39.83900000     17.43400000
O      28.85000000     40.56500000     16.85900000
H      29.42000000     42.90600000     16.45100000
H      27.99600000     43.47100000     14.76400000
H      28.84100000     45.05000000     14.61900000
H      30.51820000     44.19570000     16.18720000
H      29.43720000     43.62770000     13.73530000
H      30.85500000     39.48300000     19.00900000
H      29.77730000     40.81960000     19.19940000
H      30.06730000     38.97920000     16.87900000
