14
pbedef2svp=-303.26392094344 b3lypdef2svp=-303.45414160601 b3lypvdz=-303.68877701755
N      29.69400000     29.43600000     21.05400000
C      28.76200000     29.57300000     19.90600000
C      27.33100000     29.31700000     20.36400000
O      27.10100000     28.34600000     21.09700000
N      26.43600000     30.23200000     20.00400000
C      25.03400000     30.17000000     20.40100000
H      29.93800000     28.52400000     21.38400000
H      28.81600000     30.60900000     19.54100000
H      26.73800000     30.99700000     19.43500000
H      24.85900000     29.26400000     21.00000000
H      30.08150000     30.24190000     21.50160000
H      29.04300000     28.90990000     19.07460000
H      24.36060000     30.15480000     19.53130000
H      24.76010000     31.04090000     21.01460000
