7
pbedef2svp=-95.63988659154 b3lypdef2svp=-95.70939266381 b3lypvdz=-95.7806759996
N      37.49900000     25.74300000     14.57100000
C      38.79400000     25.76100000     13.88000000
H      36.99800000     24.88000000     14.63700000
H      39.53500000     26.22600000     14.54600000
H      37.10120000     26.56530000     14.97800000
H      38.74620000     26.36250000     12.96030000
H      39.14480000     24.74290000     13.65570000
