9
pbedef2svp=-208.80927414524 b3lypdef2svp=-208.9401635899 b3lypvdz=-209.10357138894
N      30.13200000     40.06900000     18.64200000
C      30.22500000     38.64300000     16.66200000
C      29.66400000     39.83900000     17.43400000
O      28.85000000     40.56500000     16.85900000
H      30.85500000     39.48300000     19.00900000
H      30.16200000     37.75100000     17.30200000
H      29.77730000     40.81960000     19.19940000
H      29.62730000     38.48370000     15.75240000
H      31.28290000     38.80740000     16.40920000
