9
pbedef2svp=-208.81027080657 b3lypdef2svp=-208.94115951127 b3lypvdz=-209.10454836435
N      26.58500000     20.06300000     13.37800000
C      27.57400000     18.19200000     14.56300000
C      26.48200000     19.28000000     14.43200000
O      25.60900000     19.38800000     15.28700000
H      27.36400000     19.94300000     12.76300000
H      28.56000000     18.63600000     14.36100000
H      25.91220000     20.77310000     13.17030000
H      27.52640000     17.81830000     15.59650000
H      27.37990000     17.38960000     13.83610000
