19
pbedef2svp=-347.43951925999
C      42.90400000     32.41400000     20.55300000
C      41.82200000     33.18800000     19.81300000
C      40.55900000     28.58500000     25.67500000
O      40.71600000     29.80900000     25.45600000
C      39.91900000     32.85400000     23.84000000
C      40.76000000     34.03600000     23.39400000
O      41.97500000     34.00800000     23.62400000
H      43.23600000     32.95400000     21.45200000
H      43.76900000     32.21800000     19.90300000
H      41.10900000     33.65500000     20.50800000
H      42.25100000     33.95800000     19.15500000
H      42.38410000     31.48130000     20.81700000
H      41.35560000     32.37530000     19.23680000
H      40.40020000     27.93760000     24.80000000
H      40.55030000     28.15490000     26.68740000
H      39.79500000     32.89900000     24.93200000
H      40.44000000     31.92400000     23.56800000
H      38.92460000     32.85400000     23.36960000
H      40.23850000     34.85270000     22.87340000
