15
pbedef2svp=-287.25070085881 b3lypdef2svp=-287.43660198889 b3lypvdz=-287.65862029963
C      25.82900000     19.82500000      8.49400000
C      26.54100000     18.73200000      9.25100000
O      26.33300000     18.53600000     10.45700000
C      24.46900000     19.33200000      7.95200000
C      24.29900000     20.13400000      6.70400000
N      27.36100000     17.95900000      8.55900000
H      25.66900000     20.69300000      9.15000000
H      24.49800000     18.25500000      7.73000000
H      23.65900000     19.53700000      8.66800000
H      23.56000000     19.67000000      6.03400000
H      23.98900000     21.16400000      6.93600000
H      27.51100000     18.13900000      7.58700000
H      26.37750000     20.12180000      7.58790000
H      25.30350000     20.11550000      6.25610000
H      27.83170000     17.19550000      9.00120000
