11
pbedef2svp=-321.90407657109 b3lypdef2svp=-322.09618525233 b3lypvdz=-322.35303109943
C      26.10000000     29.25300000      5.20200000
O      24.86500000     29.02400000      5.33000000
N      26.84900000     29.65600000      6.21700000
C      26.23500000     30.05800000      7.49700000
C      26.88200000     31.42800000      7.86200000
O      27.90600000     31.71100000      7.26400000
H      27.84300000     29.68800000      6.11500000
H      25.16500000     30.24200000      7.32000000
H      26.64200000     29.08530000      4.25960000
H      26.31330000     29.33410000      8.32150000
H      26.32170000     31.98910000      8.62440000
