15
pbedef2svp=-233.1445399668
C      30.05200000     35.04200000     20.00400000
O      30.10500000     36.30500000     19.78800000
C      29.18300000     39.72200000     21.58100000
C      29.30800000     39.75000000     23.09500000
C      27.70000000     39.72100000     21.22800000
H      29.86790000     34.38390000     19.14200000
H      30.11320000     34.60920000     21.01340000
H      29.62800000     38.78600000     21.21200000
H      28.76600000     38.89400000     23.52400000
H      30.37000000     39.69000000     23.37600000
H      28.87900000     40.68700000     23.48100000
H      27.20800000     38.86400000     21.71100000
H      27.23900000     40.65500000     21.58100000
H      27.58300000     39.64300000     20.13700000
H      29.71460000     40.56560000     21.11660000
