15
pbedef2svp=-233.14859496272
C      26.91300000     26.63900000      3.53100000
O      27.88600000     26.46300000      4.26300000
C      31.82700000     27.26200000      2.89400000
C      31.36300000     28.41000000      1.96200000
C      31.22000000     27.34100000      4.27500000
H      26.45330000     25.76780000      3.04140000
H      26.42360000     27.59660000      3.29980000
H      32.92200000     27.30900000      2.98900000
H      31.53900000     26.30300000      2.43900000
H      30.27100000     28.49200000      2.06200000
H      31.83500000     29.33600000      2.32200000
H      30.13900000     27.52500000      4.18300000
H      31.58880000     28.32280000      0.88900000
H      31.67060000     28.12700000      4.89880000
H      31.38000000     26.42350000      4.86030000
