10
pbedef2svp=-283.8516724667
C      40.16800000     30.02600000     19.91800000
O      39.26400000     30.66200000     20.52100000
C      36.08300000     30.19400000     17.87500000
O      35.04800000     29.70200000     17.39300000
N      37.22800000     30.12600000     17.23300000
H      41.10530000     30.55160000     19.68310000
H      40.07650000     28.96140000     19.65690000
H      37.27600000     29.67300000     16.34300000
H      38.05100000     30.52700000     17.63500000
H      36.03110000     30.68130000     18.85980000
