16
pbedef2svp=-362.33693555804 b3lypdef2svp=-362.56428051381 b3lypvdz=-362.84779590572
C      31.19100000     42.01200000     12.33100000
C      30.45900000     40.66600000     12.13000000
O      30.25300000     39.99100000     13.13300000
N      30.16300000     40.33800000     10.88600000
C      29.54200000     39.02000000     10.65300000
C      28.11300000     39.04900000     10.01500000
O      27.28000000     39.72200000     10.99600000
H      31.04300000     42.64100000     11.44100000
H      30.35300000     40.96100000     10.12800000
H      29.47700000     38.47800000     11.60800000
H      28.15100000     39.62800000      9.08100000
H      26.38900000     39.77600000     10.67200000
H      30.71680000     42.47330000     13.20980000
H      32.26270000     41.79850000     12.45690000
H      30.22710000     38.47380000      9.98800000
H      27.73750000     38.03760000      9.80040000
