6
pbedef2svp=-78.40687451986 b3lypdef2svp=-78.46806136916 b3lypvdz=-78.52777428196
C      20.63800000     26.73500000     16.05300000
C      19.67700000     26.53900000     15.05100000
H      20.75100000     26.00800000     16.84400000
H      19.01600000     25.68500000     15.08000000
H      21.27670000     27.63030000     16.03170000
H      19.61040000     27.27310000     14.23450000
