15
pbedef2svp=-287.25888773103 b3lypdef2svp=-287.44489497287 b3lypvdz=-287.66668003618
C      22.92400000     18.58300000     12.02500000
C      22.22900000     18.24400000     13.32500000
O      20.96300000     18.25300000     13.39500000
C      23.05900000     17.32600000     11.15400000
N      22.99700000     17.97800000     14.36600000
C      22.41800000     17.63800000     15.69300000
H      22.28300000     19.29200000     11.48000000
H      22.06600000     16.87100000     11.02100000
H      23.46700000     17.60900000     10.17200000
H      23.99100000     18.00600000     14.25900000
H      21.81600000     16.72700000     15.56300000
H      23.89930000     19.06470000     12.18880000
H      23.73100000     16.59430000     11.62630000
H      21.73010000     18.42720000     16.03050000
H      23.17780000     17.41440000     16.45640000
