16
pbedef2svp=-271.11831420975 b3lypdef2svp=-271.3070822563 b3lypvdz=-271.51744843891
C      21.63700000     28.92300000     10.35300000
O      20.54400000     28.04700000     10.05900000
C      20.63800000     26.73500000     16.05300000
C      20.36900000     28.64800000     14.00100000
C      19.67700000     26.53900000     15.05100000
C      19.59300000     27.46500000     14.02100000
H      22.57800000     28.46500000     10.01500000
H      21.68500000     29.10200000     11.43700000
H      20.74700000     27.53500000      9.28500000
H      21.48070000     29.87660000      9.82740000
H      20.75100000     26.00800000     16.84400000
H      20.22700000     29.39700000     13.23600000
H      19.01600000     25.68500000     15.08000000
H      18.91100000     27.27600000     13.20500000
H      21.27670000     27.63030000     16.03170000
H      21.12220000     28.77800000     14.79200000
