14
pbedef2svp=-249.21528117193
C      33.53300000     25.09700000     12.97800000
C      32.06000000     25.25700000     13.36400000
N      33.54800000     21.52600000     16.95000000
C      32.77600000     22.51900000     16.57700000
O      33.23300000     23.65900000     16.38400000
H      33.61300000     25.28200000     11.89700000
H      31.94400000     24.89900000     14.39800000
H      33.89050000     24.07720000     13.18320000
H      34.18780000     25.81960000     13.48710000
H      31.79120000     26.32350000     13.34830000
H      31.40290000     24.65200000     12.72210000
H      33.14600000     20.63400000     17.15600000
H      34.53630000     21.65660000     17.02930000
H      31.70620000     22.29040000     16.46200000
