11
pbedef2svp=-321.90390377423 b3lypdef2svp=-322.09598881676 b3lypvdz=-322.35263897976
C      20.14200000     21.59000000     15.14900000
O      19.49900000     22.64500000     15.32100000
N      19.99300000     20.88400000     14.04900000
C      19.06500000     21.35200000     12.99900000
C      19.44200000     22.74500000     12.51000000
O      18.57100000     23.61000000     12.28900000
H      20.50600000     20.03400000     13.92400000
H      19.16200000     20.67100000     12.14100000
H      20.82360000     21.26920000     15.95060000
H      18.01610000     21.30240000     13.32660000
H      20.50640000     22.92780000     12.30130000
