21
pbedef2svp=-344.85530362938
C      34.73800000     30.87500000     21.47300000
N      36.00000000     30.86000000     22.17200000
C      35.92600000     35.97900000     21.73700000
C      35.00300000     35.08400000     20.92000000
C      40.76000000     34.03600000     23.39400000
O      41.97500000     34.00800000     23.62400000
N      40.14000000     35.00700000     22.77500000
H      34.44500000     31.92400000     21.31900000
H      36.65600000     30.13900000     21.94800000
H      33.90320000     30.37660000     21.98740000
H      34.83590000     30.42250000     20.47520000
H      36.25420000     31.53120000     22.86830000
H      36.73600000     35.36100000     22.15200000
H      35.56200000     34.65300000     20.07600000
H      34.62000000     34.27400000     21.55700000
H      34.16100000     35.67900000     20.53700000
H      35.34590000     36.39700000     22.57290000
H      36.36930000     36.78820000     21.13810000
H      40.65400000     35.80100000     22.45000000
H      39.15200000     34.95500000     22.62700000
H      40.15040000     33.17930000     23.71730000
