16
pbedef2svp=-325.21383919202
C      24.51700000     21.47000000     20.03000000
C      22.94500000     21.95100000     17.78500000
C      24.27200000     21.54400000     17.64400000
C      25.05200000     21.28500000     18.77600000
N      26.58500000     20.06300000     13.37800000
C      26.48200000     19.28000000     14.43200000
O      25.60900000     19.38800000     15.28700000
H      24.69800000     21.42900000     16.65800000
H      26.07000000     20.94100000     18.66600000
H      23.48040000     21.81500000     20.15790000
H      25.09870000     21.33630000     20.95400000
H      22.31860000     22.17170000     16.90810000
H      22.54370000     22.11370000     18.79620000
H      27.36400000     19.94300000     12.76300000
H      25.91220000     20.77310000     13.17030000
H      27.25840000     18.50640000     14.52510000
