13
pbedef2svp=-265.21122235861
N      28.52500000     34.44700000     18.18900000
C      29.80100000     34.14500000     18.82900000
N      29.69400000     29.43600000     21.05400000
C      30.21000000     30.50900000     21.65000000
O      29.97800000     31.72600000     21.26900000
H      28.44200000     35.28300000     17.64600000
H      29.80100000     33.10000000     19.17200000
H      27.73110000     33.84520000     18.27590000
H      29.98510000     34.80310000     19.69100000
H      30.59150000     34.25680000     18.07230000
H      29.93800000     28.52400000     21.38400000
H      29.06640000     29.52830000     20.28090000
H      30.92970000     30.37810000     22.47150000
