11
pbedef2svp=-118.85834747372 b3lypdef2svp=-118.95116952524 b3lypvdz=-119.03828629601
C      21.02300000     31.22300000      4.78400000
C      21.86100000     31.34200000      3.47400000
C      21.90700000     30.56300000      5.88100000
H      20.13500000     30.60100000      4.60000000
H      20.70800000     32.22400000      5.11400000
H      22.03900000     32.40600000      3.26000000
H      22.82400000     30.83100000      3.61900000
H      22.89500000     31.02900000      5.75500000
H      21.34160000     30.88810000      2.61710000
H      22.05370000     29.49340000      5.67010000
H      21.58370000     30.84890000      6.89280000
