10
pbedef2svp=-134.86763663323 b3lypdef2svp=-134.96478747785 b3lypvdz=-135.06536049669
C      31.74400000     38.87900000     16.29900000
N      29.42600000     38.43000000     15.44600000
C      30.22500000     38.64300000     16.66200000
H      32.36600000     38.76400000     17.19900000
H      29.59100000     38.99300000     14.63600000
H      30.16200000     37.75100000     17.30200000
H      31.73870000     39.91890000     15.94050000
H      32.11290000     38.22830000     15.49250000
H      28.71830000     37.72380000     15.42680000
H      29.82170000     39.50280000     17.21700000
