11
pbedef2svp=-321.89860691428 b3lypdef2svp=-322.09168798831 b3lypvdz=-322.34806313542
C      23.04600000     27.08700000     22.91300000
O      23.38300000     27.62700000     21.87000000
N      23.88000000     26.72700000     23.85100000
C      25.34900000     26.87200000     23.64300000
C      25.74300000     25.58600000     22.92200000
O      25.32500000     24.48900000     23.37800000
H      23.53200000     26.35300000     24.71100000
H      25.55800000     27.73800000     22.99800000
H      21.97730000     26.87910000     23.07020000
H      25.87450000     26.98350000     24.60290000
H      26.34900000     25.67240000     22.00800000
