9
pbedef2svp=-208.79276887548 b3lypdef2svp=-208.92359271331 b3lypvdz=-209.08644598848
C      18.45300000     28.94100000     20.59100000
O      17.86000000     27.99400000     21.12800000
N      19.17200000     29.80800000     21.24300000
C      19.39900000     29.89400000     22.65500000
H      19.62500000     30.50400000     20.68600000
H      20.01700000     30.78600000     22.83600000
H      18.42000000     30.02200000     23.13900000
H      18.44580000     29.08700000     19.50080000
H      19.89850000     29.04320000     23.14140000
