15
pbedef2svp=-287.1675403963
C      22.82400000     34.51400000     17.78200000
N      22.04500000     35.45500000     17.17300000
C      25.03400000     30.17000000     20.40100000
C      24.10100000     30.14900000     19.19600000
O      24.19600000     30.94800000     18.28700000
C      24.63900000     31.42600000     21.28600000
H      22.56500000     33.48000000     17.95500000
H      23.76530000     35.00910000     18.06260000
H      22.51780000     36.33590000     17.19330000
H      24.85900000     29.26400000     21.00000000
H      24.67100000     32.30400000     20.62400000
H      26.09140000     30.21680000     20.10160000
H      23.32440000     29.37080000     19.23240000
H      25.35980000     31.60060000     22.09840000
H      23.60990000     31.34340000     21.66570000
