13
pbedef2svp=-323.0416623212
C      29.66400000     39.83900000     17.43400000
O      28.85000000     40.56500000     16.85900000
N      29.72100000     43.67300000     15.88500000
C      28.97800000     43.96000000     14.67800000
C      29.60400000     43.50700000     13.39300000
O      29.21900000     43.98100000     12.30100000
H      30.06730000     38.97920000     16.87900000
H      30.05530000     40.03130000     18.44390000
H      29.42000000     42.90600000     16.45100000
H      27.99600000     43.47100000     14.76400000
H      28.84100000     45.05000000     14.61900000
H      30.51820000     44.19570000     16.18720000
H      30.41030000     42.76370000     13.47880000
