13
pbedef2svp=-174.09876547178 b3lypdef2svp=-174.22390479877 b3lypvdz=-174.35352052382
C      30.84700000     30.93100000     24.11800000
C      29.41200000     30.79600000     24.59800000
C      29.27100000     31.31400000     26.01600000
N      27.87500000     31.31700000     26.44300000
H      31.49100000     30.45600000     24.87200000
H      31.07600000     32.00600000     24.06500000
H      28.75300000     31.37500000     23.93500000
H      29.12000000     29.73600000     24.57000000
H      29.85100000     30.66900000     26.69200000
H      29.66200000     32.34100000     26.06300000
H      27.44700000     30.43800000     26.65100000
H      31.10430000     30.49220000     23.14270000
H      27.32000000     32.14310000     26.54080000
