15
pbedef2svp=-378.3963062449 b3lypdef2svp=-378.62950010214 b3lypvdz=-378.92664005312
N      24.24000000     19.23300000     12.24600000
C      24.24100000     20.43600000     12.85700000
O      23.26400000     20.95100000     13.32900000
C      26.54100000     18.73200000      9.25100000
O      26.33300000     18.53600000     10.45700000
N      27.36100000     17.95900000      8.55900000
C      25.82900000     19.82500000      8.49400000
H      25.09100000     18.79700000     11.95400000
H      23.35340000     18.79510000     12.09710000
H      25.21610000     20.92100000     13.01190000
H      27.51100000     18.13900000      7.58700000
H      25.66900000     20.69300000      9.15000000
H      27.83170000     17.19550000      9.00120000
H      26.37750000     20.12180000      7.58790000
H      24.86060000     19.47400000      8.10810000
