7
pbedef2svp=-95.63723494791 b3lypdef2svp=-95.70659800797 b3lypvdz=-95.77796352455
N      26.55900000     20.22000000      7.28800000
C      25.82900000     19.82500000      8.49400000
H      25.66900000     20.69300000      9.15000000
H      27.51430000     20.51490000      7.30920000
H      25.98970000     20.14450000      6.46940000
H      26.34830000     19.02780000      9.04610000
H      24.86060000     19.47400000      8.10810000
