13
pbedef2svp=-323.09511336378 b3lypdef2svp=-323.29783054102 b3lypvdz=-323.55415347837
C      40.44900000     32.27800000     17.94500000
O      39.93600000     31.33600000     17.31500000
C      36.01200000     30.86000000     19.22100000
C      36.08300000     30.19400000     17.87500000
O      35.04800000     29.70200000     17.39300000
N      37.22800000     30.12600000     17.23300000
H      40.28750000     33.31930000     17.62930000
H      41.06180000     32.11820000     18.84440000
H      35.81700000     31.93400000     19.08500000
H      36.97000000     30.72500000     19.74400000
H      37.27600000     29.67300000     16.34300000
H      38.05100000     30.52700000     17.63500000
H      35.20410000     30.41700000     19.82190000
