12
pbedef2svp=-248.03605582329 b3lypdef2svp=-248.19421739739 b3lypvdz=-248.38689844441
N      26.46500000     25.68900000     21.83300000
C      25.34900000     26.87200000     23.64300000
C      25.74300000     25.58600000     22.92200000
O      25.32500000     24.48900000     23.37800000
C      26.07000000     27.02500000     24.96000000
H      26.78200000     26.59400000     21.54900000
H      25.55800000     27.73800000     22.99800000
H      25.61000000     27.84000000     25.53800000
H      25.99900000     26.08600000     25.52900000
H      26.71010000     24.89590000     21.27550000
H      24.26500000     26.76500000     23.79650000
H      27.12760000     27.26110000     24.77100000
