12
pbedef2svp=-339.1577992862 b3lypdef2svp=-339.36160737099 b3lypvdz=-339.63021903073
N      22.09900000     29.16300000      5.60500000
C      21.12700000     28.24000000      5.57400000
O      19.95800000     28.46500000      5.84200000
N      26.84900000     29.65600000      6.21700000
C      26.10000000     29.25300000      5.20200000
O      24.86500000     29.02400000      5.33000000
H      23.03200000     28.85400000      5.42200000
H      21.96560000     30.13540000      5.79670000
H      21.50810000     27.23660000      5.33340000
H      27.84300000     29.68800000      6.11500000
H      26.43290000     29.92850000      7.08450000
H      26.64200000     29.08530000      4.25960000
