15
pbedef2svp=-233.14948446528
C      27.33100000     29.31700000     20.36400000
O      27.10100000     28.34600000     21.09700000
C      27.04300000     24.99200000     19.57100000
C      25.93100000     25.84400000     18.95900000
C      26.20300000     26.08300000     17.47100000
H      28.36380000     29.50180000     20.03350000
H      26.59060000     30.07400000     20.06620000
H      27.96900000     25.58500000     19.54900000
H      27.16400000     24.09800000     18.94200000
H      25.90600000     26.81600000     19.47400000
H      25.39600000     26.69700000     17.04400000
H      27.16300000     26.60700000     17.35300000
H      26.24600000     25.11700000     16.94600000
H      26.88710000     24.65370000     20.60600000
H      24.94360000     25.36710000     19.04650000
