14
pbedef2svp=-269.97818425606 b3lypdef2svp=-270.15754456921 b3lypvdz=-270.36848032982
C      26.77200000     33.43600000      9.19700000
C      27.15100000     33.36200000     10.65000000
O      26.35000000     32.77800000     11.39500000
C      25.69500000     34.49800000      8.94600000
C      25.28800000     34.60900000      7.49900000
C      24.14700000     33.96600000      7.03800000
H      27.66100000     33.67200000      8.59400000
H      24.80600000     34.23900000      9.53900000
H      26.08400000     35.47300000      9.27400000
H      23.51900000     33.41800000      7.72500000
H      26.36600000     32.46180000      8.88710000
H      28.06890000     33.84290000     11.01910000
H      25.94760000     35.18220000      6.83090000
H      23.88440000     34.01700000      5.97100000
