13
pbedef2svp=-377.19125046334 b3lypdef2svp=-377.41423827585 b3lypvdz=-377.71191845854
C      24.24100000     20.43600000     12.85700000
O      23.26400000     20.95100000     13.32900000
N      24.24000000     19.23300000     12.24600000
C      22.92400000     18.58300000     12.02500000
C      22.22900000     18.24400000     13.32500000
O      20.96300000     18.25300000     13.39500000
N      22.99700000     17.97800000     14.36600000
H      25.09100000     18.79700000     11.95400000
H      22.28300000     19.29200000     11.48000000
H      23.99100000     18.00600000     14.25900000
H      25.21610000     20.92100000     13.01190000
H      23.02070000     17.68240000     11.40090000
H      22.60770000     17.74940000     15.25830000
