14
pbedef2svp=-361.1445473231 b3lypdef2svp=-361.36334405287 b3lypvdz=-361.64954241692
C      19.06500000     21.35200000     12.99900000
C      19.44200000     22.74500000     12.51000000
O      18.57100000     23.61000000     12.28900000
C      17.58600000     21.28200000     13.46100000
C      16.57600000     21.25800000     12.31500000
O      15.44000000     21.81900000     12.37800000
N      16.92400000     20.58600000     11.21600000
H      19.16200000     20.67100000     12.14100000
H      17.45300000     20.36800000     14.05800000
H      17.37700000     22.16200000     14.08700000
H      16.29000000     20.52600000     10.44500000
H      17.81900000     20.14300000     11.16300000
H      19.75590000     21.00360000     13.78080000
H      20.50640000     22.92780000     12.30130000
