9
pbedef2svp=-208.79731216422 b3lypdef2svp=-208.92753914738 b3lypvdz=-209.09070778742
N      34.00700000     23.74500000     13.25000000
C      33.53300000     25.09700000     12.97800000
C      35.23800000     23.38200000     12.92000000
O      36.06600000     24.10900000     12.33300000
H      33.39700000     23.08600000     13.69000000
H      33.61300000     25.28200000     11.89700000
H      34.18780000     25.81960000     13.48710000
H      32.47480000     25.21190000     13.25530000
H      35.49140000     22.34750000     13.19500000
