14
pbedef2svp=-212.12816494445 b3lypdef2svp=-212.27255111316 b3lypvdz=-212.4321392801
N      41.18900000     32.08500000     19.03100000
C      41.46100000     30.75100000     19.59400000
C      42.19500000     31.14200000     20.91300000
C      42.90400000     32.41400000     20.55300000
C      41.82200000     33.18800000     19.81300000
H      42.11200000     30.14800000     18.94400000
H      41.47600000     31.30900000     21.72900000
H      42.91200000     30.36200000     21.21000000
H      43.23600000     32.95400000     21.45200000
H      43.76900000     32.21800000     19.90300000
H      41.10900000     33.65500000     20.50800000
H      42.25100000     33.95800000     19.15500000
H      40.63190000     32.23030000     18.21340000
H      40.52370000     30.22540000     19.82890000
