8
pbedef2svp=-79.63903061027 b3lypdef2svp=-79.70427144261 b3lypvdz=-79.7619293291
C      37.15600000     35.98500000     11.68800000
C      38.29000000     35.81400000     12.69800000
H      37.25300000     35.21500000     10.90800000
H      36.19400000     35.86100000     12.20700000
H      38.04100000     34.96600000     13.35300000
H      38.35600000     36.73400000     13.29800000
H      37.18200000     36.97790000     11.21530000
H      39.27740000     35.62380000     12.25200000
