11
pbedef2svp=-118.86506057165 b3lypdef2svp=-118.95823132308 b3lypvdz=-119.0449027211
C      31.20000000     30.32900000     22.78000000
C      30.84700000     30.93100000     24.11800000
C      29.41200000     30.79600000     24.59800000
H      31.35500000     29.25000000     22.92500000
H      31.49100000     30.45600000     24.87200000
H      31.07600000     32.00600000     24.06500000
H      28.75300000     31.37500000     23.93500000
H      29.12000000     29.73600000     24.57000000
H      32.13930000     30.76110000     22.40440000
H      30.48030000     30.45990000     21.95850000
H      29.30970000     31.17180000     25.62670000
