12
pbedef2svp=-248.03882998972 b3lypdef2svp=-248.19749404158 b3lypvdz=-248.38992659658
C      25.03400000     30.17000000     20.40100000
C      24.10100000     30.14900000     19.19600000
O      24.19600000     30.94800000     18.28700000
C      24.63900000     31.42600000     21.28600000
N      23.14100000     29.18700000     19.24100000
H      24.85900000     29.26400000     21.00000000
H      24.67100000     32.30400000     20.62400000
H      23.12400000     28.54900000     20.01100000
H      26.09140000     30.21680000     20.10160000
H      25.35980000     31.60060000     22.09840000
H      23.60990000     31.34340000     21.66570000
H      22.45120000     29.10210000     18.52200000
