15
pbedef2svp=-233.16366562802
C      35.70800000     30.77600000     13.80600000
C      34.22800000     30.63000000     13.31900000
C      35.59600000     26.71500000     15.73600000
C      36.97500000     26.82600000     15.10700000
O      37.57900000     27.92600000     15.15900000
H      35.89000000     29.98800000     14.55100000
H      33.94700000     31.51600000     12.73100000
H      34.13500000     29.73000000     12.69300000
H      36.42890000     30.63080000     12.98790000
H      35.82630000     31.74690000     14.30930000
H      33.56150000     30.54100000     14.18960000
H      35.14500000     27.71800000     15.76300000
H      34.95080000     26.04660000     15.14690000
H      35.68160000     26.34670000     16.76900000
H      37.41260000     25.92150000     14.65940000
