15
pbedef2svp=-378.31889795201 b3lypdef2svp=-378.55308243809 b3lypvdz=-378.8522867459
C      29.94200000     21.10600000     21.24000000
O      29.47000000     20.67700000     20.19000000
C      28.37500000     17.99900000     16.88700000
O      29.32600000     18.78600000     16.69000000
N      27.51000000     17.68900000     15.95400000
N      29.34000000     17.59400000     19.07600000
C      28.10800000     17.43900000     18.27600000
H      29.26390000     21.50910000     22.00660000
H      31.02640000     21.09260000     21.42400000
H      26.75900000     17.07400000     16.19600000
H      29.44000000     18.40200000     19.65700000
H      27.85100000     16.37300000     18.19200000
H      27.55320000     18.02870000     15.01450000
H      30.07790000     16.91940000     19.05720000
H      27.25840000     17.97950000     18.71880000
