14
pbedef2svp=-249.16790211881
N      21.84600000     19.95400000     15.90500000
C      21.07900000     21.14900000     16.25100000
C      27.57400000     18.19200000     14.56300000
C      26.48200000     19.28000000     14.43200000
O      25.60900000     19.38800000     15.28700000
H      22.72300000     20.07900000     15.44100000
H      20.48400000     20.94600000     17.15300000
H      21.54970000     19.01970000     16.10310000
H      20.39740000     21.46980000     15.44940000
H      21.80210000     21.94330000     16.48820000
H      28.56000000     18.63600000     14.36100000
H      27.52640000     17.81830000     15.59650000
H      27.37990000     17.38960000     13.83610000
H      26.56800000     19.93400000     13.55170000
