18
pbedef2svp=-326.45774583005 b3lypdef2svp=-326.67042388892 b3lypvdz=-326.92136328923
C      31.40900000     32.68000000      6.44600000
O      32.61900000     32.81200000      6.12500000
N      30.88400000     31.48500000      6.66600000
C      31.67700000     30.27500000      6.63900000
C      31.56200000     29.68600000      8.04500000
C      32.63100000     29.44400000      9.06000000
C      31.94500000     29.44900000     10.43600000
H      29.90500000     31.41600000      6.85800000
H      32.72700000     30.46400000      6.36900000
H      30.84400000     30.34400000      8.55700000
H      31.10600000     28.69700000      7.88900000
H      33.02000000     28.42800000      8.89700000
H      32.69500000     29.27400000     11.22100000
H      31.46200000     30.42300000     10.60100000
H      31.18600000     28.65300000     10.47000000
H      30.74920000     33.55880000      6.49420000
H      31.20720000     29.56700000      5.94040000
H      33.48990000     30.13090000      9.03820000
