15
pbedef2svp=-287.16263252807
C      21.32500000     28.81300000     15.00500000
C      20.36900000     28.64800000     14.00100000
N      22.24100000     31.87300000     11.24100000
C      23.21200000     32.76200000     11.89100000
C      23.50900000     32.22400000     13.29000000
O      22.54400000     31.94200000     14.03400000
H      21.97400000     29.67600000     14.99200000
H      20.22700000     29.39700000     13.23600000
H      21.42110000     28.06910000     15.80960000
H      19.76570000     27.72830000     14.01650000
H      21.34100000     31.75600000     11.66200000
H      24.14700000     32.76300000     11.31200000
H      22.44230000     31.37920000     10.39500000
H      22.85770000     33.80140000     11.95590000
H      24.56230000     32.05710000     13.55970000
