24
pbedef2svp=-238.90535411161
C      27.96700000     28.08700000     10.41700000
C      27.81000000     28.74800000      8.99900000
C      31.56200000     29.68600000      8.04500000
C      31.67700000     30.27500000      6.63900000
C      29.90300000     24.59000000      7.66500000
C      30.86200000     25.49600000      8.38900000
H      29.03100000     27.89400000     10.61600000
H      27.56800000     28.76600000     11.18400000
H      27.41100000     27.13800000     10.44300000
H      28.22100000     28.06200000      8.24300000
H      28.37700000     29.69100000      8.98500000
H      26.76150000     28.96400000      8.74580000
H      30.84400000     30.34400000      8.55700000
H      31.10600000     28.69700000      7.88900000
H      32.72700000     30.46400000      6.36900000
H      32.34920000     29.50780000      8.79240000
H      31.07410000     31.19490000      6.65950000
H      31.20720000     29.56700000      5.94040000
H      29.89100000     23.63600000      8.21200000
H      30.49800000     25.67400000      9.41200000
H      31.85400000     25.02200000      8.43000000
H      30.93500000     26.45400000      7.85400000
H      30.17450000     24.34680000      6.62710000
H      28.87570000     24.98230000      7.69380000
