15
pbedef2svp=-378.38411114303 b3lypdef2svp=-378.61601436013 b3lypvdz=-378.91320240815
C      28.37500000     17.99900000     16.88700000
O      29.32600000     18.78600000     16.69000000
C      27.57400000     18.19200000     14.56300000
N      27.51000000     17.68900000     15.95400000
N      31.11300000     20.86300000     15.86000000
C      31.59300000     20.55300000     14.65500000
O      32.15900000     21.31100000     13.86100000
H      28.56000000     18.63600000     14.36100000
H      26.75900000     17.07400000     16.19600000
H      28.18190000     17.59410000     17.89140000
H      26.79760000     18.96560000     14.46990000
H      27.37990000     17.38960000     13.83610000
H      30.62600000     20.16900000     16.39000000
H      31.23290000     21.77950000     16.24150000
H      31.45430000     19.49380000     14.39250000
