15
pbedef2svp=-378.39109774329 b3lypdef2svp=-378.62359188342 b3lypvdz=-378.92125502923
N      32.76300000     35.83100000     23.09000000
C      31.90100000     34.91000000     22.72800000
O      32.19000000     33.69600000     22.63500000
C      34.73800000     30.87500000     21.47300000
C      33.58900000     30.18900000     22.18100000
O      33.58000000     29.00900000     22.49900000
N      32.47800000     30.91700000     22.26900000
H      32.48200000     36.79100000     23.10200000
H      33.69650000     35.58850000     23.35410000
H      30.88240000     35.23880000     22.47440000
H      34.44500000     31.92400000     21.31900000
H      32.49800000     31.87600000     21.98800000
H      35.70020000     30.86360000     22.00590000
H      34.83590000     30.42250000     20.47520000
H      31.62410000     30.52410000     22.61040000
