20
pbedef2svp=-273.5512503537
C      33.30600000     34.38100000      9.84000000
C      34.53500000     34.02800000     10.72000000
C      37.44100000     28.88200000     11.05200000
O      38.02000000     29.77200000     10.38200000
C      38.61500000     32.80100000      8.32000000
C      37.22000000     32.82200000      8.82700000
H      32.43400000     33.80800000     10.18800000
H      33.52200000     34.12000000      8.79300000
H      34.74500000     32.95100000     10.64200000
H      35.41000000     34.59800000     10.37300000
H      34.32100000     34.28500000     11.76800000
H      33.08340000     35.45610000      9.90730000
H      37.46240000     27.81700000     10.77770000
H      36.92150000     29.11950000     11.99210000
H      38.67800000     33.59500000      7.56100000
H      38.75200000     31.82100000      7.83900000
H      36.84100000     31.79300000      8.91200000
H      37.19200000     33.30600000      9.81400000
H      39.48140000     32.94120000      8.98310000
H      36.59760000     33.38850000      8.11870000
