5
pbedef2svp=-40.41388131265 b3lypdef2svp=-40.45072550047 b3lypvdz=-40.47927474282
C      29.90300000     24.59000000      7.66500000
H      29.89100000     23.63600000      8.21200000
H      30.17450000     24.34680000      6.62710000
H      30.60400000     25.25220000      8.19420000
H      28.87570000     24.98230000      7.69380000
