18
pbedef2svp=-326.48911948771 b3lypdef2svp=-326.70306448607 b3lypvdz=-326.95386992948
N      36.81100000     29.17000000     12.19200000
C      36.73100000     30.57000000     12.64500000
C      35.70800000     30.77600000     13.80600000
C      37.47100000     27.39100000     10.66800000
C      37.44100000     28.88200000     11.05200000
O      38.02000000     29.77200000     10.38200000
C      36.19300000     27.05800000      9.91100000
H      36.39600000     28.44100000     12.73600000
H      36.42300000     31.20600000     11.80200000
H      35.89000000     29.98800000     14.55100000
H      38.32600000     27.22700000      9.99500000
H      35.33700000     27.21800000     10.58200000
H      36.11200000     27.73300000      9.04600000
H      37.74640000     30.86450000     12.94880000
H      34.66770000     30.67340000     13.46370000
H      35.82630000     31.74690000     14.30930000
H      37.59160000     26.75970000     11.56070000
H      36.16410000     26.01980000      9.54860000
