14
pbedef2svp=-249.14415808531
C      38.36500000     29.33500000     24.15900000
O      37.68400000     29.39000000     25.22100000
C      35.75200000     32.05400000     28.16000000
C      35.61200000     30.57700000     28.04400000
N      35.04000000     30.25200000     26.73000000
H      38.86900000     28.41650000     23.82390000
H      38.40990000     30.19820000     23.47870000
H      36.76100000     32.34900000     27.83600000
H      35.60300000     32.35000000     29.20900000
H      36.60000000     30.10400000     28.14300000
H      34.94700000     30.20600000     28.83800000
H      35.16400000     30.85000000     25.93800000
H      35.00670000     32.56240000     27.53060000
H      34.51960000     29.40020000     26.67070000
