18
pbedef2svp=-326.487387809 b3lypdef2svp=-326.70157406853 b3lypvdz=-326.95207573
C      30.47900000     35.36900000     22.37400000
C      31.90100000     34.91000000     22.72800000
O      32.19000000     33.69600000     22.63500000
C      29.47200000     35.18100000     23.49800000
C      28.04900000     35.45400000     23.07100000
N      32.76300000     35.83100000     23.09000000
C      34.14500000     35.47200000     23.48100000
H      30.50500000     36.43000000     22.08400000
H      29.51300000     34.11600000     23.77100000
H      27.37300000     35.30100000     23.92600000
H      27.96500000     36.49300000     22.71900000
H      27.77200000     34.76700000     22.25700000
H      32.48200000     36.79100000     23.10200000
H      34.41100000     34.50500000     23.02800000
H      30.21720000     34.75240000     21.50150000
H      29.72350000     35.74030000     24.41120000
H      34.21370000     35.38510000     24.57540000
H      34.82450000     36.23770000     23.07850000
