9
pbedef2svp=-208.80885747286 b3lypdef2svp=-208.93879139453 b3lypvdz=-209.10247046017
N      21.67400000     30.03400000      8.19100000
C      21.90700000     30.56300000      5.88100000
C      21.46600000     30.95300000      7.26100000
O      21.06600000     32.11200000      7.53300000
H      22.02400000     29.14200000      7.90400000
H      22.89500000     31.02900000      5.75500000
H      21.50030000     30.18320000      9.16440000
H      22.05370000     29.49340000      5.67010000
H      21.28200000     31.02960000      5.10540000
