16
pbedef2svp=-362.32030685197
C      25.69800000     32.87600000     15.66900000
O      26.15800000     33.73000000     14.89400000
C      28.60500000     33.96500000     12.50300000
C      28.63800000     35.46100000     12.90000000
O      29.52200000     36.10300000     12.32000000
C      29.96300000     33.31700000     12.81400000
N      27.75100000     35.86700000     13.74000000
H      25.30670000     31.97290000     15.17790000
H      25.63210000     32.93510000     16.76540000
H      27.82500000     33.46000000     13.09200000
H      30.75600000     33.85900000     12.27900000
H      27.09800000     35.21600000     14.12700000
H      28.34310000     33.94830000     11.43480000
H      30.14340000     33.37300000     13.89770000
H      29.95870000     32.26700000     12.48600000
H      27.71110000     36.82960000     14.00790000
