18
pbedef2svp=-363.48937254373
C      40.55900000     28.58500000     25.67500000
O      40.71600000     29.80900000     25.45600000
C      38.52800000     32.85400000     23.18200000
C      39.91900000     32.85400000     23.84000000
N      37.19700000     35.39700000     27.51300000
C      36.67100000     34.29600000     27.08900000
O      37.30500000     33.23300000     26.79500000
H      40.40020000     27.93760000     24.80000000
H      40.55030000     28.15490000     26.68740000
H      38.63400000     32.78100000     22.09000000
H      37.99600000     33.78200000     23.43800000
H      39.79500000     32.89900000     24.93200000
H      40.44000000     31.92400000     23.56800000
H      37.96540000     31.98740000     23.55940000
H      40.52860000     33.71070000     23.51670000
H      36.61300000     36.17900000     27.72900000
H      38.18810000     35.46770000     27.62550000
H      35.58340000     34.20810000     26.95000000
