12
pbedef2svp=-193.9162010821
C      29.18300000     39.72200000     21.58100000
C      29.91900000     40.89000000     20.93800000
C      30.05200000     35.04200000     20.00400000
O      30.10500000     36.30500000     19.78800000
H      29.62800000     38.78600000     21.21200000
H      30.99700000     40.68600000     21.01500000
H      29.67500000     41.79500000     21.51400000
H      29.27350000     39.74230000     22.67710000
H      28.11290000     39.72130000     21.32630000
H      29.69490000     41.09830000     19.88140000
H      29.86790000     34.38390000     19.14200000
H      30.11320000     34.60920000     21.01340000
