15
pbedef2svp=-345.08349370635 b3lypdef2svp=-345.30143112769 b3lypvdz=-345.57461306336
C      26.85000000     29.02100000      3.89800000
C      26.10000000     29.25300000      5.20200000
O      24.86500000     29.02400000      5.33000000
C      26.73300000     30.14800000      2.90500000
C      26.88200000     31.54600000      3.40900000
C      26.78600000     32.56200000      2.27000000
O      27.78300000     33.16000000      1.87000000
H      27.91400000     28.87800000      4.13600000
H      27.50800000     29.99200000      2.14000000
H      25.73900000     30.07200000      2.44000000
H      26.08500000     31.75000000      4.13900000
H      27.86200000     31.64800000      3.89800000
H      26.47150000     28.10150000      3.42760000
H      26.72220000     29.58780000      6.04510000
H      25.76610000     32.70450000      1.88340000
