22
pbedef2svp=-328.79167582541
N      34.73400000     25.82200000     14.94900000
C      35.59600000     26.71500000     15.73600000
C      36.08300000     30.19400000     17.87500000
O      35.04800000     29.70200000     17.39300000
C      33.28400000     30.50400000     14.55200000
C      35.70800000     30.77600000     13.80600000
C      34.22800000     30.63000000     13.31900000
H      34.36300000     24.99500000     15.37200000
H      35.14500000     27.71800000     15.76300000
H      34.51330000     26.03060000     13.99620000
H      36.59410000     26.79530000     15.28070000
H      35.68160000     26.34670000     16.76900000
H      36.03110000     30.68130000     18.85980000
H      37.04120000     30.13710000     17.33770000
H      32.24400000     30.40100000     14.20900000
H      33.56500000     29.61800000     15.14000000
H      33.37700000     31.40400000     15.17800000
H      35.89000000     29.98800000     14.55100000
H      33.94700000     31.51600000     12.73100000
H      34.13500000     29.73000000     12.69300000
H      36.42890000     30.63080000     12.98790000
H      35.82630000     31.74690000     14.30930000
