9
pbedef2svp=-208.8104398769 b3lypdef2svp=-208.93999759482 b3lypvdz=-209.10398056083
O      15.44000000     21.81900000     12.37800000
N      16.92400000     20.58600000     11.21600000
C      17.58600000     21.28200000     13.46100000
C      16.57600000     21.25800000     12.31500000
H      16.29000000     20.52600000     10.44500000
H      17.81900000     20.14300000     11.16300000
H      17.45300000     20.36800000     14.05800000
H      17.37700000     22.16200000     14.08700000
H      18.63490000     21.33160000     13.13340000
