21
pbedef2svp=-344.85954987588
C      27.57400000     18.19200000     14.56300000
C      27.29900000     17.05500000     13.53300000
N      24.24000000     19.23300000     12.24600000
C      22.92400000     18.58300000     12.02500000
C      26.54100000     18.73200000      9.25100000
O      26.33300000     18.53600000     10.45700000
N      27.36100000     17.95900000      8.55900000
H      28.56000000     18.63600000     14.36100000
H      27.28300000     17.48700000     12.52200000
H      27.52640000     17.81830000     15.59650000
H      26.79760000     18.96560000     14.46990000
H      26.28680000     16.72790000     13.81300000
H      27.97910000     16.19060000     13.55110000
H      25.09100000     18.79700000     11.95400000
H      22.28300000     19.29200000     11.48000000
H      24.24070000     20.12460000     12.69880000
H      22.41860000     18.33650000     12.97040000
H      23.02070000     17.68240000     11.40090000
H      27.51100000     18.13900000      7.58700000
H      26.02170000     19.52920000      8.69890000
H      27.83170000     17.19550000      9.00120000
