17
pbedef2svp=-288.43911968112
N      25.62100000     32.94500000     16.95000000
C      25.69800000     32.87600000     15.66900000
O      26.15800000     33.73000000     14.89400000
C      29.96300000     33.31700000     12.81400000
C      30.21100000     33.39400000     14.30400000
C      28.60500000     33.96500000     12.50300000
H      25.18900000     32.20800000     17.47000000
H      25.99730000     33.74220000     17.42210000
H      25.30670000     31.97290000     15.17790000
H      30.75600000     33.85900000     12.27900000
H      31.18200000     32.93300000     14.53900000
H      30.22000000     34.44800000     14.62000000
H      29.41200000     32.85800000     14.83700000
H      27.82500000     33.46000000     13.09200000
H      29.95870000     32.26700000     12.48600000
H      28.34310000     33.94830000     11.43480000
H      28.62840000     35.02800000     12.78510000
