13
pbedef2svp=-377.19174293439 b3lypdef2svp=-377.41433769249 b3lypvdz=-377.71220202955
N      34.00700000     23.74500000     13.25000000
C      33.53300000     25.09700000     12.97800000
C      34.44100000     26.09900000     13.68400000
O      34.88300000     27.09000000     13.09300000
N      34.73400000     25.82200000     14.94900000
C      35.23800000     23.38200000     12.92000000
O      36.06600000     24.10900000     12.33300000
H      33.39700000     23.08600000     13.69000000
H      33.61300000     25.28200000     11.89700000
H      34.36300000     24.99500000     15.37200000
H      32.47480000     25.21190000     13.25530000
H      35.32050000     26.42960000     15.48450000
H      35.49140000     22.34750000     13.19500000
