6
pbedef2svp=-169.57222912211 b3lypdef2svp=-169.67501842988 b3lypvdz=-169.8090309746
N      26.33500000     27.77000000      3.25800000
C      26.91300000     26.63900000      3.53100000
O      27.88600000     26.46300000      4.26300000
H      25.55800000     27.80400000      2.63000000
H      26.67910000     28.60590000      3.68560000
H      26.45330000     25.76780000      3.04140000
