17
pbedef2svp=-288.39437726995
C      23.46100000     17.33100000     16.74100000
N      22.99700000     17.97800000     14.36600000
C      22.41800000     17.63800000     15.69300000
C      27.57400000     18.19200000     14.56300000
C      26.48200000     19.28000000     14.43200000
O      25.60900000     19.38800000     15.28700000
H      24.21600000     18.13000000     16.70200000
H      22.96200000     17.34600000     17.72100000
H      23.99100000     18.00600000     14.25900000
H      21.81600000     16.72700000     15.56300000
H      23.98920000     16.37030000     16.65190000
H      22.41550000     18.17940000     13.57780000
H      21.73010000     18.42720000     16.03050000
H      28.56000000     18.63600000     14.36100000
H      27.52640000     17.81830000     15.59650000
H      27.37990000     17.38960000     13.83610000
H      26.56800000     19.93400000     13.55170000
