13
pbedef2svp=-323.03928872668 b3lypdef2svp=-323.24187307757 b3lypvdz=-323.49945032046
C      26.91300000     26.63900000      3.53100000
O      27.88600000     26.46300000      4.26300000
C      29.27900000     23.22700000      5.64100000
O      28.47800000     23.52200000      4.72500000
N      30.31000000     25.45800000      5.38400000
C      30.28800000     24.24500000      6.19300000
H      26.45330000     25.76780000      3.04140000
H      26.42360000     27.59660000      3.29980000
H      29.44600000     25.83300000      5.04800000
H      31.28700000     23.78400000      6.19600000
H      29.36350000     22.24810000      6.13550000
H      31.16300000     25.92680000      5.15450000
H      30.01650000     24.48820000      7.23090000
