9
pbedef2svp=-208.79045983411 b3lypdef2svp=-208.92062426954 b3lypvdz=-209.08402360488
N      41.18900000     32.08500000     19.03100000
C      40.44900000     32.27800000     17.94500000
O      39.93600000     31.33600000     17.31500000
C      41.82200000     33.18800000     19.81300000
H      41.10900000     33.65500000     20.50800000
H      42.25100000     33.95800000     19.15500000
H      41.37360000     31.17950000     19.41310000
H      40.28750000     33.31930000     17.62930000
H      42.60380000     32.62870000     20.34770000
