18
pbedef2svp=-363.4877451578
C      36.97500000     26.82600000     15.10700000
O      37.57900000     27.92600000     15.15900000
C      40.08200000     26.90400000     18.19800000
C      41.03500000     27.90900000     18.87900000
O      42.77000000     27.65500000     15.90600000
N      43.89800000     29.25200000     17.05000000
C      43.09000000     28.82800000     16.09500000
H      35.97690000     26.74570000     15.56230000
H      37.41260000     25.92150000     14.65940000
H      40.61100000     25.98900000     17.89400000
H      39.58500000     27.34800000     17.32300000
H      41.73000000     27.40700000     19.56800000
H      41.60700000     28.49000000     18.14100000
H      39.36710000     26.70580000     19.01020000
H      40.31170000     28.53820000     19.41850000
H      44.30200000     28.59800000     17.69000000
H      44.10600000     30.22700000     17.13300000
H      42.62110000     29.56940000     15.43130000
