9
pbedef2svp=-208.749741703 b3lypdef2svp=-208.88170517923 b3lypvdz=-209.04614938999
O      29.80900000     29.39500000      5.54500000
N      30.88400000     31.48500000      6.66600000
C      31.67700000     30.27500000      6.63900000
C      31.02200000     29.28800000      5.66500000
H      29.90500000     31.41600000      6.85800000
H      32.72700000     30.46400000      6.36900000
H      31.28060000     32.38780000      6.49980000
H      31.59430000     29.85120000      7.65070000
H      31.70340000     28.55290000      5.21190000
