10
pbedef2svp=-229.76592335931
C      26.54100000     18.73200000      9.25100000
O      26.33300000     18.53600000     10.45700000
C      23.05900000     17.32600000     11.15400000
O      23.91400000     16.39500000     11.75500000
H      26.02170000     19.52920000      8.69890000
H      27.22310000     18.08900000      8.67540000
H      22.06600000     16.87100000     11.02100000
H      23.46700000     17.60900000     10.17200000
H      23.98400000     15.62600000     11.20200000
H      22.96230000     18.22670000     11.77810000
