15
pbedef2svp=-233.16313878329 b3lypdef2svp=-233.32742579189 b3lypvdz=-233.50695362941
C      36.15300000     25.62000000      9.40900000
C      34.75800000     25.28000000      8.90000000
C      33.53300000     25.09700000     12.97800000
C      34.44100000     26.09900000     13.68400000
O      34.88300000     27.09000000     13.09300000
H      36.87800000     25.50100000      8.59000000
H      36.41500000     24.94000000     10.23300000
H      34.16900000     24.86400000      9.73100000
H      34.27900000     26.20100000      8.53600000
H      36.18190000     26.65820000      9.77140000
H      34.78330000     24.54580000      8.08130000
H      33.61300000     25.28200000     11.89700000
H      33.89050000     24.07720000     13.18320000
H      32.47480000     25.21190000     13.25530000
H      34.68380000     25.86950000     14.73200000
