17
pbedef2svp=-288.39697710679
C      22.08500000     22.25400000     16.58100000
N      21.84600000     19.95400000     15.90500000
C      21.07900000     21.14900000     16.25100000
C      25.59400000     21.10900000     13.07200000
C      24.24100000     20.43600000     12.85700000
O      23.26400000     20.95100000     13.32900000
H      22.74300000     22.39600000     15.71100000
H      21.52900000     23.18300000     16.77600000
H      22.72300000     20.07900000     15.44100000
H      20.48400000     20.94600000     17.15300000
H      22.71140000     22.03330000     17.45790000
H      21.54970000     19.01970000     16.10310000
H      20.39740000     21.46980000     15.44940000
H      25.51600000     21.80500000     13.92000000
H      26.33400000     20.32790000     13.30050000
H      25.94320000     21.66420000     12.18890000
H      24.24020000     19.45520000     12.35890000
