14
pbedef2svp=-303.25639990463 b3lypdef2svp=-303.44686244601 b3lypvdz=-303.68150376932
N      30.88400000     31.48500000      6.66600000
C      31.67700000     30.27500000      6.63900000
C      31.02200000     29.28800000      5.66500000
O      29.80900000     29.39500000      5.54500000
N      31.83400000     28.41200000      5.12500000
C      31.22000000     27.34100000      4.27500000
H      29.90500000     31.41600000      6.85800000
H      32.72700000     30.46400000      6.36900000
H      32.82200000     28.45600000      5.27400000
H      30.13900000     27.52500000      4.18300000
H      31.28060000     32.38780000      6.49980000
H      31.59430000     29.85120000      7.65070000
H      31.38000000     26.42350000      4.86030000
H      31.66200000     27.28350000      3.26940000
