8
pbedef2svp=-79.63449999963 b3lypdef2svp=-79.69968454071 b3lypvdz=-79.75731439256
C      42.19500000     31.14200000     20.91300000
C      42.90400000     32.41400000     20.55300000
H      41.47600000     31.30900000     21.72900000
H      42.91200000     30.36200000     21.21000000
H      43.23600000     32.95400000     21.45200000
H      43.76900000     32.21800000     19.90300000
H      41.67720000     30.86620000     19.98250000
H      42.12220000     32.97330000     20.01830000
