15
pbedef2svp=-233.15689248325
C      31.74400000     38.87900000     16.29900000
C      30.22500000     38.64300000     16.66200000
C      29.80100000     34.14500000     18.82900000
C      30.05200000     35.04200000     20.00400000
O      30.10500000     36.30500000     19.78800000
H      32.36600000     38.76400000     17.19900000
H      30.16200000     37.75100000     17.30200000
H      31.73870000     39.91890000     15.94050000
H      32.11290000     38.22830000     15.49250000
H      29.62730000     38.48370000     15.75240000
H      29.82170000     39.50280000     17.21700000
H      29.80100000     33.10000000     19.17200000
H      28.83900000     34.37270000     18.34650000
H      30.59150000     34.25680000     18.07230000
H      30.11320000     34.60920000     21.01340000
