17
pbedef2svp=-197.27383935287
C      20.63800000     26.73500000     16.05300000
C      19.67700000     26.53900000     15.05100000
C      24.12300000     24.98100000     14.19500000
C      22.65000000     24.51600000     12.17200000
C      22.66200000     24.81900000     13.69900000
H      20.75100000     26.00800000     16.84400000
H      19.01600000     25.68500000     15.08000000
H      21.27670000     27.63030000     16.03170000
H      19.61040000     27.27310000     14.23450000
H      24.12300000     25.19500000     15.27400000
H      24.68000000     24.05100000     14.00600000
H      24.60300000     25.81200000     13.65700000
H      23.21600000     23.58600000     12.01300000
H      22.10700000     25.74900000     13.89000000
H      22.18400000     23.98900000     14.23900000
H      21.61880000     24.33800000     11.83300000
H      23.16720000     25.32030000     11.62840000
