16
pbedef2svp=-213.32470380275 b3lypdef2svp=-213.47737101373 b3lypvdz=-213.63611988162
C      30.92500000     34.30400000     17.75300000
C      32.34500000     34.18300000     18.35800000
C      32.55500000     32.78300000     18.87000000
N      28.52500000     34.44700000     18.18900000
C      29.80100000     34.14500000     18.82900000
H      30.79800000     33.52100000     16.99100000
H      30.82500000     35.29300000     17.28200000
H      32.46000000     34.90800000     19.17700000
H      33.56400000     32.69700000     19.30000000
H      31.80600000     32.56000000     19.64400000
H      32.44800000     32.06900000     18.04000000
H      28.44200000     35.28300000     17.64600000
H      29.80100000     33.10000000     19.17200000
H      33.07160000     34.40330000     17.56200000
H      27.73110000     33.84520000     18.27590000
H      29.98510000     34.80310000     19.69100000
