11
pbedef2svp=-118.86689232502 b3lypdef2svp=-118.96001373015 b3lypvdz=-119.04687822557
C      32.63100000     29.44400000      9.06000000
C      33.81400000     30.39000000      9.03000000
C      31.94500000     29.44900000     10.43600000
H      33.02000000     28.42800000      8.89700000
H      34.52800000     30.11100000      9.81900000
H      34.30900000     30.32700000      8.05000000
H      33.46500000     31.41900000      9.19900000
H      32.69500000     29.27400000     11.22100000
H      31.46200000     30.42300000     10.60100000
H      31.18600000     28.65300000     10.47000000
H      31.84380000     29.62220000      8.31260000
