14
pbedef2svp=-249.17326160029
C      36.32200000     32.94400000      6.47700000
N      35.76800000     33.94500000      5.48900000
C      31.40900000     32.68000000      6.44600000
O      32.61900000     32.81200000      6.12500000
C      30.50500000     33.88400000      6.51200000
H      37.34000000     32.64900000      6.18200000
H      35.67700000     32.05300000      6.51000000
H      35.73600000     33.53300000      4.57900000
H      34.84500000     34.21200000      5.76700000
H      36.34300000     33.42920000      7.46400000
H      29.59500000     33.63500000      7.07700000
H      30.97270000     31.68690000      6.62880000
H      31.04940000     34.69580000      7.01660000
H      30.21620000     34.23900000      5.51170000
