6
pbedef2svp=-169.57341023695 b3lypdef2svp=-169.67523156142 b3lypvdz=-169.80966596246
N      24.79000000     32.02100000     13.61800000
C      23.50900000     32.22400000     13.29000000
O      22.54400000     31.94200000     14.03400000
H      25.50600000     32.15100000     12.93200000
H      25.03460000     31.74030000     14.54610000
H      23.29520000     32.61130000     12.28290000
