19
pbedef2svp=-343.66770741372
N      31.69700000     18.31100000     20.40600000
C      31.56800000     16.96200000     19.82500000
C      32.12800000     19.36400000     19.75000000
O      32.54600000     19.31700000     18.55800000
N      33.54800000     21.52600000     16.95000000
C      35.03100000     21.72200000     17.06900000
C      35.66700000     20.38300000     17.44700000
H      31.43900000     18.43200000     21.36400000
H      32.42200000     16.80400000     19.15000000
H      31.61200000     16.23500000     20.64900000
H      30.64790000     16.76740000     19.25440000
H      32.22500000     20.30980000     20.30330000
H      33.14600000     20.63400000     17.15600000
H      35.24600000     22.46200000     17.85400000
H      35.07400000     19.98200000     18.28200000
H      35.55700000     19.72700000     16.57100000
H      32.95960000     22.28290000     16.66570000
H      35.45680000     22.06320000     16.11390000
H      36.72140000     20.31800000     17.75370000
