19
pbedef2svp=-347.44967040332
O      28.44900000     20.67400000      8.36000000
C      27.81900000     20.60900000      7.31600000
C      27.42600000     22.61600000     11.90200000
C      27.71800000     23.34100000     10.57800000
C      31.92300000     20.43600000      8.75500000
O      32.49300000     19.37400000      8.45600000
C      31.15500000     20.51500000     10.04800000
H      28.28810000     20.84830000      6.35030000
H      26.76820000     20.28460000      7.29260000
H      28.23400000     21.90500000     12.13000000
H      28.68700000     23.85800000     10.64800000
H      27.75200000     22.60800000      9.75900000
H      26.92400000     24.07600000     10.38000000
H      26.46010000     22.09200000     11.85230000
H      27.39290000     23.41200000     12.66050000
H      30.22700000     21.08200000      9.88300000
H      31.76900000     21.02800000     10.80200000
H      31.84810000     21.28680000      8.06180000
H      30.90260000     19.50820000     10.41220000
