14
pbedef2svp=-361.1301478032 b3lypdef2svp=-361.35072823597 b3lypvdz=-361.63618192106
C      26.91300000     26.63900000      3.53100000
O      27.88600000     26.46300000      4.26300000
N      26.33500000     27.77000000      3.25800000
C      26.85000000     29.02100000      3.89800000
C      26.10000000     29.25300000      5.20200000
O      24.86500000     29.02400000      5.33000000
C      26.73300000     30.14800000      2.90500000
H      25.55800000     27.80400000      2.63000000
H      27.91400000     28.87800000      4.13600000
H      27.50800000     29.99200000      2.14000000
H      25.73900000     30.07200000      2.44000000
H      26.45330000     25.76780000      3.04140000
H      26.72220000     29.58780000      6.04510000
H      26.84270000     31.17760000      3.27620000
