16
pbedef2svp=-362.31839908778
N      41.18900000     32.08500000     19.03100000
C      41.46100000     30.75100000     19.59400000
C      40.44900000     32.27800000     17.94500000
O      39.93600000     31.33600000     17.31500000
O      42.77000000     27.65500000     15.90600000
C      42.44500000     29.84800000     15.18200000
C      43.09000000     28.82800000     16.09500000
H      42.11200000     30.14800000     18.94400000
H      41.61300000     32.82380000     19.55480000
H      40.52370000     30.22540000     19.82890000
H      41.97880000     31.02680000     20.52450000
H      40.28750000     33.31930000     17.62930000
H      43.02100000     29.92200000     14.24800000
H      42.42600000     30.82900000     15.68000000
H      41.41650000     29.52930000     14.95700000
H      43.76290000     29.18110000     16.89030000
