6
pbedef2svp=-169.57270106935 b3lypdef2svp=-169.67530299913 b3lypvdz=-169.80941269451
N      30.13200000     40.06900000     18.64200000
C      29.66400000     39.83900000     17.43400000
O      28.85000000     40.56500000     16.85900000
H      30.85500000     39.48300000     19.00900000
H      29.77730000     40.81960000     19.19940000
H      30.06730000     38.97920000     16.87900000
