13
pbedef2svp=-323.08228017093 b3lypdef2svp=-323.28486466478 b3lypvdz=-323.54082498203
C      29.94200000     21.10600000     21.24000000
O      29.47000000     20.67700000     20.19000000
C      30.32000000     16.69800000     19.05100000
O      30.19800000     15.65700000     18.36600000
N      29.34000000     17.59400000     19.07600000
C      28.10800000     17.43900000     18.27600000
H      29.26390000     21.50910000     22.00660000
H      31.02640000     21.09260000     21.42400000
H      29.44000000     18.40200000     19.65700000
H      27.85100000     16.37300000     18.19200000
H      31.24010000     16.89260000     19.62160000
H      28.30110000     17.84390000     17.27160000
H      27.25840000     17.97950000     18.71880000
