13
pbedef2svp=-377.19072667996 b3lypdef2svp=-377.41459257113 b3lypvdz=-377.71208263354
C      31.02200000     29.28800000      5.66500000
O      29.80900000     29.39500000      5.54500000
N      31.83400000     28.41200000      5.12500000
C      31.22000000     27.34100000      4.27500000
C      31.44000000     26.07900000      5.08000000
O      32.57600000     25.80200000      5.46100000
N      30.31000000     25.45800000      5.38400000
H      32.82200000     28.45600000      5.27400000
H      30.13900000     27.52500000      4.18300000
H      29.44600000     25.83300000      5.04800000
H      31.49180000     29.99600000      6.36360000
H      31.66200000     27.28350000      3.26940000
H      30.29490000     24.62620000      5.93880000
