6
pbedef2svp=-169.56875813789 b3lypdef2svp=-169.6711522953 b3lypvdz=-169.80554648379
N      29.72100000     43.67300000     15.88500000
C      30.75500000     44.35100000     16.27700000
O      31.20700000     45.26800000     15.56600000
H      29.42000000     42.90600000     16.45100000
H      29.20720000     43.87150000     15.05040000
H      31.24500000     44.04910000     17.21440000
