22
pbedef2svp=-328.85472617781
C      31.39800000     19.06400000     14.28600000
C      32.49200000     18.19300000     14.99500000
C      28.40700000     22.94800000     16.36600000
C      29.00600000     22.04300000     17.44200000
C      28.37500000     17.99900000     16.88700000
O      29.32600000     18.78600000     16.69000000
N      27.51000000     17.68900000     15.95400000
H      30.40500000     18.73500000     14.62700000
H      32.40300000     18.31600000     16.08500000
H      31.48330000     18.96650000     13.19370000
H      31.53670000     20.12320000     14.54850000
H      33.44980000     18.59970000     14.63820000
H      32.39220000     17.12890000     14.73480000
H      27.34900000     22.68900000     16.21600000
H      28.48600000     23.99800000     16.68500000
H      28.95600000     22.80900000     15.42300000
H      28.90200000     21.00100000     17.10700000
H      28.43100000     22.19000000     18.36800000
H      30.06740000     22.22320000     17.66770000
H      26.75900000     17.07400000     16.19600000
H      28.18190000     17.59410000     17.89140000
H      27.55320000     18.02870000     15.01450000
