13
pbedef2svp=-323.09276493867 b3lypdef2svp=-323.2918287272 b3lypvdz=-323.54616031775
N      41.00100000     29.87800000     11.93100000
C      41.71800000     30.02200000     10.64300000
C      41.39800000     28.78000000      9.81000000
C      42.62600000     28.55700000      8.92800000
O      43.66600000     28.26200000      9.53900000
O      42.43000000     28.81200000      7.72800000
H      40.44300000     29.06500000     12.10000000
H      42.79800000     30.00900000     10.85200000
H      41.23000000     27.91100000     10.46300000
H      40.50500000     28.95100000      9.19100000
H      43.25100000     28.75500000      7.25300000
H      41.07040000     30.58720000     12.63260000
H      41.48610000     30.97850000     10.15170000
