14
pbedef2svp=-303.26009237968 b3lypdef2svp=-303.45060257325 b3lypvdz=-303.68544025382
N      29.42600000     38.43000000     15.44600000
C      30.22500000     38.64300000     16.66200000
C      29.66400000     39.83900000     17.43400000
O      28.85000000     40.56500000     16.85900000
N      30.13200000     40.06900000     18.64200000
C      29.60700000     41.18000000     19.46700000
H      29.59100000     38.99300000     14.63600000
H      30.16200000     37.75100000     17.30200000
H      30.85500000     39.48300000     19.00900000
H      28.51100000     41.16800000     19.37000000
H      28.71830000     37.72380000     15.42680000
H      31.28290000     38.80740000     16.40920000
H      29.94670000     42.16570000     19.11640000
H      29.83110000     40.97170000     20.52360000
