16
pbedef2svp=-362.30565982331
C      28.63800000     35.46100000     12.90000000
O      29.52200000     36.10300000     12.32000000
C      30.45900000     40.66600000     12.13000000
O      30.25300000     39.99100000     13.13300000
N      30.16300000     40.33800000     10.88600000
C      29.54200000     39.02000000     10.65300000
C      28.11300000     39.04900000     10.01500000
H      28.61460000     34.39800000     12.61790000
H      27.88010000     35.80790000     13.61780000
H      30.35300000     40.96100000     10.12800000
H      29.47700000     38.47800000     11.60800000
H      28.15100000     39.62800000      9.08100000
H      30.98010000     41.62410000     12.27310000
H      30.22710000     38.47380000      9.98800000
H      27.48210000     39.55870000     10.75800000
H      27.73750000     38.03760000      9.80040000
