15
pbedef2svp=-378.3867946815 b3lypdef2svp=-378.6201757444 b3lypvdz=-378.91704439486
N      25.62100000     32.94500000     16.95000000
C      25.14900000     31.60900000     14.98000000
C      25.69800000     32.87600000     15.66900000
O      26.15800000     33.73000000     14.89400000
N      27.75100000     35.86700000     13.74000000
C      28.63800000     35.46100000     12.90000000
O      29.52200000     36.10300000     12.32000000
H      25.18900000     32.20800000     17.47000000
H      24.28500000     31.20800000     15.53000000
H      25.99730000     33.74220000     17.42210000
H      24.87990000     31.91780000     13.95910000
H      25.97710000     30.88500000     14.97070000
H      27.09800000     35.21600000     14.12700000
H      27.71110000     36.82960000     14.00790000
H      28.61460000     34.39800000     12.61790000
