15
pbedef2svp=-287.25415869057 b3lypdef2svp=-287.66183375254 b3lypvdz=-287.66183375254
C      31.59300000     20.55300000     14.65500000
O      32.15900000     21.31100000     13.86100000
N      31.11300000     20.86300000     15.86000000
C      31.28800000     22.20100000     16.41700000
C      30.52000000     22.30000000     17.76400000
C      30.83200000     23.69900000     18.35800000
H      30.62600000     20.16900000     16.39000000
H      30.85300000     22.93800000     15.72600000
H      30.88200000     21.52100000     18.45100000
H      30.30700000     23.81600000     19.31800000
H      31.91600000     23.79500000     18.51900000
H      30.49400000     24.47800000     17.65800000
H      31.45430000     19.49380000     14.39250000
H      32.35780000     22.42960000     16.53200000
H      29.45860000     22.11980000     17.53830000
