18
pbedef2svp=-326.47797879509 b3lypdef2svp=-326.69091572458 b3lypvdz=-326.94162754926
C      40.22600000     33.71600000     17.50900000
C      40.44900000     32.27800000     17.94500000
O      39.93600000     31.33600000     17.31500000
C      38.69300000     34.10600000     17.59500000
C      38.14600000     33.93200000     19.02700000
N      41.18900000     32.08500000     19.03100000
C      41.82200000     33.18800000     19.81300000
H      40.79400000     34.38800000     18.16900000
H      38.14400000     33.41300000     16.94100000
H      37.08200000     34.21100000     19.05000000
H      38.25700000     32.88200000     19.33700000
H      38.70900000     34.57900000     19.71600000
H      41.10900000     33.65500000     20.50800000
H      42.25100000     33.95800000     19.15500000
H      40.53700000     33.86550000     16.46450000
H      38.53620000     35.12310000     17.20650000
H      41.37360000     31.17950000     19.41310000
H      42.60380000     32.62870000     20.34770000
