15
pbedef2svp=-378.37180742982
N      32.76300000     35.83100000     23.09000000
C      34.14500000     35.47200000     23.48100000
C      31.90100000     34.91000000     22.72800000
O      32.19000000     33.69600000     22.63500000
C      36.33400000     31.74200000     23.08700000
O      35.57400000     32.61800000     23.48300000
N      36.00000000     30.86000000     22.17200000
H      32.48200000     36.79100000     23.10200000
H      34.41100000     34.50500000     23.02800000
H      34.21370000     35.38510000     24.57540000
H      34.82450000     36.23770000     23.07850000
H      30.88240000     35.23880000     22.47440000
H      36.65600000     30.13900000     21.94800000
H      37.33660000     31.66700000     23.53330000
H      35.12530000     30.87040000     21.68750000
