10
pbedef2svp=-283.85814194001 b3lypdef2svp=-284.03262867328 b3lypvdz=-284.25973521124
C      31.90100000     34.91000000     22.72800000
O      32.19000000     33.69600000     22.63500000
N      32.47800000     30.91700000     22.26900000
C      33.58900000     30.18900000     22.18100000
O      33.58000000     29.00900000     22.49900000
H      30.88240000     35.23880000     22.47440000
H      32.62350000     35.68200000     23.03140000
H      32.49800000     31.87600000     21.98800000
H      31.62410000     30.52410000     22.61040000
H      34.42380000     30.68740000     21.66660000
