16
pbedef2svp=-159.27881606334 b3lypdef2svp=-159.40819592904 b3lypvdz=-159.52341739493
C      23.18100000     31.30900000     21.82400000
C      24.63900000     31.42600000     21.28600000
C      26.17900000     34.12700000     17.65000000
C      25.21400000     34.56500000     18.78000000
H      22.94200000     32.19400000     22.43200000
H      22.48200000     31.24600000     20.97700000
H      23.09000000     30.40400000     22.44300000
H      24.67100000     32.30400000     20.62400000
H      24.91290000     30.55510000     20.67240000
H      25.35980000     31.60060000     22.09840000
H      26.36900000     34.95900000     16.95600000
H      24.95100000     33.70000000     19.40600000
H      25.69000000     35.33700000     19.40200000
H      25.76500000     33.25010000     17.13070000
H      27.11220000     33.78430000     18.12090000
H      24.31050000     34.97140000     18.30190000
