7
pbedef2svp=-95.64028967155 b3lypdef2svp=-95.70981191651 b3lypvdz=-95.78109774165
N      28.52500000     34.44700000     18.18900000
C      29.80100000     34.14500000     18.82900000
H      28.44200000     35.28300000     17.64600000
H      29.80100000     33.10000000     19.17200000
H      27.73110000     33.84520000     18.27590000
H      29.98510000     34.80310000     19.69100000
H      30.59150000     34.25680000     18.07230000
