16
pbedef2svp=-358.46787923728
C      27.60300000     14.42300000     20.65500000
N      27.47900000     13.73300000     19.53700000
C      28.37500000     17.99900000     16.88700000
O      29.32600000     18.78600000     16.69000000
N      27.51000000     17.68900000     15.95400000
N      29.34000000     17.59400000     19.07600000
C      28.10800000     17.43900000     18.27600000
H      28.09800000     12.94800000     19.51000000
H      27.07040000     15.35420000     20.89840000
H      28.34420000     14.05400000     21.37920000
H      26.75900000     17.07400000     16.19600000
H      29.44000000     18.40200000     19.65700000
H      27.85100000     16.37300000     18.19200000
H      27.55320000     18.02870000     15.01450000
H      30.07790000     16.91940000     19.05720000
H      27.25840000     17.97950000     18.71880000
