10
pbedef2svp=-192.74935450274 b3lypdef2svp=-192.87688917237 b3lypvdz=-193.0278142615
C      27.69100000     37.31500000     14.14300000
C      28.46900000     37.47500000     15.42000000
O      28.21300000     36.75300000     16.41100000
C      26.21900000     37.68400000     14.30700000
H      28.13900000     37.93800000     13.35500000
H      25.70800000     37.42000000     13.36900000
H      25.81700000     37.07300000     15.12800000
H      27.73490000     36.25610000     13.84830000
H      29.24750000     38.25190000     15.44120000
H      25.97730000     38.73380000     14.52920000
