15
pbedef2svp=-233.1607719665
C      26.85000000     29.02100000      3.89800000
C      26.73300000     30.14800000      2.90500000
O      29.80900000     29.39500000      5.54500000
C      31.67700000     30.27500000      6.63900000
C      31.02200000     29.28800000      5.66500000
H      27.91400000     28.87800000      4.13600000
H      27.50800000     29.99200000      2.14000000
H      25.73900000     30.07200000      2.44000000
H      26.47150000     28.10150000      3.42760000
H      26.30800000     29.18870000      4.84040000
H      26.84270000     31.17760000      3.27620000
H      32.72700000     30.46400000      6.36900000
H      31.07410000     31.19490000      6.65950000
H      31.59430000     29.85120000      7.65070000
H      31.70340000     28.55290000      5.21190000
