12
pbedef2svp=-247.98571496573 b3lypdef2svp=-248.14593409286 b3lypvdz=-248.33943994547
N      26.58500000     20.06300000     13.37800000
C      25.59400000     21.10900000     13.07200000
C      24.24100000     20.43600000     12.85700000
O      23.26400000     20.95100000     13.32900000
C      26.08400000     21.88800000     11.83300000
H      27.36400000     19.94300000     12.76300000
H      25.51600000     21.80500000     13.92000000
H      26.14900000     21.16800000     11.00400000
H      25.31800000     22.64300000     11.60300000
H      26.50680000     19.46850000     14.17830000
H      24.24020000     19.45520000     12.35890000
H      27.04990000     22.41200000     11.88270000
