10
pbedef2svp=-283.85219662985 b3lypdef2svp=-284.02539599836 b3lypvdz=-284.25299302562
C      22.22900000     18.24400000     13.32500000
O      20.96300000     18.25300000     13.39500000
C      20.14200000     21.59000000     15.14900000
O      19.49900000     22.64500000     15.32100000
N      19.99300000     20.88400000     14.04900000
H      22.73440000     18.49050000     12.37960000
H      22.86870000     18.02250000     14.19200000
H      20.50600000     20.03400000     13.92400000
H      20.82360000     21.26920000     15.95060000
H      19.36490000     21.20080000     13.33830000
