15
pbedef2svp=-233.15598601613
C      42.90400000     32.41400000     20.55300000
C      41.82200000     33.18800000     19.81300000
C      42.34500000     34.26900000     14.43100000
C      41.94900000     34.07600000     15.84200000
O      42.82900000     34.00000000     16.73900000
H      43.23600000     32.95400000     21.45200000
H      43.76900000     32.21800000     19.90300000
H      41.10900000     33.65500000     20.50800000
H      42.25100000     33.95800000     19.15500000
H      42.38410000     31.48130000     20.81700000
H      41.35560000     32.37530000     19.23680000
H      42.96700000     33.40700000     14.14900000
H      42.95000000     35.18700000     14.38800000
H      41.55910000     34.36380000     13.66720000
H      40.87940000     33.94510000     16.06300000
