20
pbedef2svp=-273.56176905563
C      30.49100000     19.16200000     12.04000000
O      29.36700000     19.52300000     12.44100000
C      27.29900000     17.05500000     13.53300000
C      28.23600000     15.86400000     13.55800000
C      27.42600000     22.61600000     11.90200000
C      27.71800000     23.34100000     10.57800000
H      30.71360000     19.10430000     10.96430000
H      31.33860000     18.97400000     12.71540000
H      27.28300000     17.48700000     12.52200000
H      27.93200000     15.14100000     12.78700000
H      29.26400000     16.20200000     13.35900000
H      28.19300000     15.38400000     14.54700000
H      27.49310000     17.85740000     14.25990000
H      26.28680000     16.72790000     13.81300000
H      28.23400000     21.90500000     12.13000000
H      28.68700000     23.85800000     10.64800000
H      27.75200000     22.60800000      9.75900000
H      26.92400000     24.07600000     10.38000000
H      26.46010000     22.09200000     11.85230000
H      27.39290000     23.41200000     12.66050000
