9
pbedef2svp=-208.79328932786 b3lypdef2svp=-208.92330603035 b3lypvdz=-209.08670613941
C      30.95500000     35.21100000      8.45900000
O      30.02500000     34.61800000      9.04000000
N      31.24400000     34.98600000      7.19700000
C      30.50500000     33.88400000      6.51200000
H      31.93100000     35.53000000      6.71500000
H      29.59500000     33.63500000      7.07700000
H      31.51460000     35.99950000      8.98350000
H      31.16480000     33.00520000      6.46380000
H      30.21620000     34.23900000      5.51170000
