22
pbedef2svp=-328.85483545227
C      30.41600000     28.91200000     17.98000000
C      30.20500000     30.16800000     17.12900000
C      32.34500000     34.18300000     18.35800000
C      32.55500000     32.78300000     18.87000000
N      32.47800000     30.91700000     22.26900000
C      33.58900000     30.18900000     22.18100000
O      33.58000000     29.00900000     22.49900000
H      31.24500000     29.08800000     18.68100000
H      31.11700000     30.37800000     16.55200000
H      29.36400000     30.00600000     16.43900000
H      29.98200000     31.02200000     17.78500000
H      29.49180000     28.72420000     18.54620000
H      30.64830000     28.03280000     17.36110000
H      32.46000000     34.90800000     19.17700000
H      33.56400000     32.69700000     19.30000000
H      31.80600000     32.56000000     19.64400000
H      32.44800000     32.06900000     18.04000000
H      31.33610000     34.26900000     17.92820000
H      33.07160000     34.40330000     17.56200000
H      32.49800000     31.87600000     21.98800000
H      31.62410000     30.52410000     22.61040000
H      34.42380000     30.68740000     21.66660000
