17
pbedef2svp=-342.49720006364 b3lypdef2svp=-342.71532825268 b3lypvdz=-342.97941573391
N      21.84600000     19.95400000     15.90500000
C      21.07900000     21.14900000     16.25100000
C      20.14200000     21.59000000     15.14900000
O      19.49900000     22.64500000     15.32100000
N      19.99300000     20.88400000     14.04900000
C      19.06500000     21.35200000     12.99900000
C      17.58600000     21.28200000     13.46100000
H      22.72300000     20.07900000     15.44100000
H      20.48400000     20.94600000     17.15300000
H      20.50600000     20.03400000     13.92400000
H      19.16200000     20.67100000     12.14100000
H      17.45300000     20.36800000     14.05800000
H      17.37700000     22.16200000     14.08700000
H      21.54970000     19.01970000     16.10310000
H      21.80210000     21.94330000     16.48820000
H      19.33720000     22.35760000     12.64600000
H      16.85880000     21.26470000     12.63590000
