13
pbedef2svp=-323.07350853266 b3lypdef2svp=-323.27461741172 b3lypvdz=-323.5302319869
C      24.51700000     21.47000000     20.03000000
O      25.24800000     21.30200000     21.19100000
C      25.05200000     21.28500000     18.77600000
N      27.94200000     22.44800000     21.64800000
C      27.99400000     23.78100000     21.64300000
O      28.90400000     24.44400000     22.09800000
H      26.12400000     21.00400000     20.97400000
H      26.07000000     20.94100000     18.66600000
H      23.48040000     21.81500000     20.15790000
H      24.43870000     21.48870000     17.88590000
H      27.17100000     21.98000000     21.21600000
H      28.66760000     21.91310000     22.08080000
H      27.14870000     24.31660000     21.18630000
