7
pbedef2svp=-95.64682081798 b3lypdef2svp=-95.71635232542 b3lypvdz=-95.78940710411
N      34.91400000     24.94400000      6.44100000
C      34.79300000     24.26400000      7.76700000
H      34.93500000     24.25700000      5.71400000
H      34.13000000     25.55000000      6.30400000
H      35.65600000     23.59600000      7.90900000
H      33.86500000     23.67300000      7.78500000
H      34.76770000     24.99820000      8.58570000
