11
pbedef2svp=-267.82541707758 b3lypdef2svp=-267.99379997295 b3lypvdz=-268.20753955721
C      27.57400000     18.19200000     14.56300000
C      26.48200000     19.28000000     14.43200000
O      25.60900000     19.38800000     15.28700000
C      27.29900000     17.05500000     13.53300000
O      25.92500000     16.61100000     13.91300000
H      28.56000000     18.63600000     14.36100000
H      27.28300000     17.48700000     12.52200000
H      25.65000000     15.90600000     13.33900000
H      27.52640000     17.81830000     15.59650000
H      26.56800000     19.93400000     13.55170000
H      27.97910000     16.19060000     13.55110000
