6
pbedef2svp=-78.40786570115 b3lypdef2svp=-78.46929192591 b3lypvdz=-78.52897951923
C      19.67700000     26.53900000     15.05100000
C      19.59300000     27.46500000     14.02100000
H      19.01600000     25.68500000     15.08000000
H      18.91100000     27.27600000     13.20500000
H      20.43090000     26.69280000     15.83710000
H      20.19630000     28.38470000     14.00550000
