9
pbedef2svp=-208.8079144786 b3lypdef2svp=-208.93800958049 b3lypvdz=-209.1017959027
C      38.81700000     28.02000000     19.88900000
C      38.42100000     28.04800000     21.34100000
O      37.21300000     28.03600000     21.70400000
N      39.37400000     28.09000000     22.24000000
H      38.00200000     28.46900000     19.30300000
H      40.32700000     28.14100000     21.94300000
H      39.74510000     28.57150000     19.67830000
H      39.01380000     27.01710000     19.48230000
H      39.16500000     28.07190000     23.21770000
