15
pbedef2svp=-287.2589637673 b3lypdef2svp=-287.44546144032 b3lypvdz=-287.66668327255
C      26.26600000     25.41300000      2.84200000
C      26.91300000     26.63900000      3.53100000
O      27.88600000     26.46300000      4.26300000
C      25.11200000     24.88000000      3.64900000
C      25.35300000     24.86000000      5.13400000
N      26.33500000     27.77000000      3.25800000
H      25.88000000     25.74300000      1.86700000
H      24.23300000     25.51000000      3.45100000
H      24.90700000     23.85100000      3.31900000
H      26.29500000     24.33800000      5.35600000
H      25.40300000     25.88800000      5.52200000
H      25.55800000     27.80400000      2.63000000
H      27.06770000     24.67930000      2.67180000
H      24.50780000     24.32480000      5.59140000
H      26.67910000     28.60590000      3.68560000
