19
pbedef2svp=-343.68037820943
N      32.76300000     35.83100000     23.09000000
C      30.47900000     35.36900000     22.37400000
C      31.90100000     34.91000000     22.72800000
O      32.19000000     33.69600000     22.63500000
N      32.47800000     30.91700000     22.26900000
C      31.20000000     30.32900000     22.78000000
C      30.84700000     30.93100000     24.11800000
H      32.48200000     36.79100000     23.10200000
H      30.50500000     36.43000000     22.08400000
H      33.69650000     35.58850000     23.35410000
H      30.21720000     34.75240000     21.50150000
H      29.75060000     35.23300000     23.18700000
H      32.49800000     31.87600000     21.98800000
H      31.35500000     29.25000000     22.92500000
H      31.49100000     30.45600000     24.87200000
H      31.07600000     32.00600000     24.06500000
H      33.31260000     30.37010000     22.20290000
H      30.48030000     30.45990000     21.95850000
H      29.80790000     30.83320000     24.46560000
