10
pbedef2svp=-192.74664022137 b3lypdef2svp=-192.87442667178 b3lypvdz=-193.02528038936
C      28.76200000     29.57300000     19.90600000
C      27.33100000     29.31700000     20.36400000
O      27.10100000     28.34600000     21.09700000
C      29.15100000     28.65500000     18.75500000
H      28.81600000     30.60900000     19.54100000
H      29.23500000     27.64100000     19.17300000
H      28.32300000     28.68600000     18.03100000
H      29.45240000     29.47150000     20.75640000
H      26.59060000     30.07400000     20.06620000
H      30.07520000     28.84280000     18.18880000
