12
pbedef2svp=-193.91975823139 b3lypdef2svp=-194.05644761639 b3lypvdz=-194.20705530983
C      25.11200000     24.88000000      3.64900000
C      25.35300000     24.86000000      5.13400000
C      29.27900000     23.22700000      5.64100000
O      28.47800000     23.52200000      4.72500000
H      24.23300000     25.51000000      3.45100000
H      24.90700000     23.85100000      3.31900000
H      26.29500000     24.33800000      5.35600000
H      25.40300000     25.88800000      5.52200000
H      25.95510000     25.26940000      3.05940000
H      24.50780000     24.32480000      5.59140000
H      30.00160000     23.95610000      6.03630000
H      29.36350000     22.24810000      6.13550000
