14
pbedef2svp=-195.12592786057
C      23.37600000     25.64500000     11.40900000
C      22.65000000     24.51600000     12.17200000
C      21.63700000     28.92300000     10.35300000
O      20.54400000     28.04700000     10.05900000
H      24.39600000     25.75900000     11.80600000
H      23.42500000     25.39200000     10.34000000
H      22.82500000     26.58800000     11.53800000
H      23.21600000     23.58600000     12.01300000
H      21.61880000     24.33800000     11.83300000
H      22.65850000     24.73010000     13.25090000
H      22.57800000     28.46500000     10.01500000
H      21.68500000     29.10200000     11.43700000
H      20.74700000     27.53500000      9.28500000
H      21.48070000     29.87660000      9.82740000
