7
pbedef2svp=-153.52110907003 b3lypdef2svp=-153.62017223009 b3lypvdz=-153.74218418957
C      38.36500000     29.33500000     24.15900000
O      37.68400000     29.39000000     25.22100000
C      39.06300000     28.06300000     23.69500000
H      38.35200000     27.23900000     23.85600000
H      38.40990000     30.19820000     23.47870000
H      39.29290000     28.08300000     22.61950000
H      39.97620000     27.79770000     24.24780000
