19
pbedef2svp=-343.68598302429
C      34.73800000     30.87500000     21.47300000
C      33.58900000     30.18900000     22.18100000
O      33.58000000     29.00900000     22.49900000
N      32.47800000     30.91700000     22.26900000
C      34.50900000     26.07700000     19.36000000
C      33.20600000     26.31100000     20.12200000
N      33.45500000     25.91000000     21.54600000
H      34.44500000     31.92400000     21.31900000
H      32.49800000     31.87600000     21.98800000
H      35.70020000     30.86360000     22.00590000
H      34.83590000     30.42250000     20.47520000
H      31.62410000     30.52410000     22.61040000
H      34.78800000     25.01600000     19.43700000
H      35.30300000     26.69700000     19.80200000
H      32.92400000     27.37300000     20.07200000
H      32.40100000     25.69700000     19.69200000
H      32.62200000     26.04800000     22.08200000
H      33.71700000     24.94500000     21.58000000
H      34.38860000     26.34390000     18.29970000
