15
pbedef2svp=-287.26229015601 b3lypdef2svp=-287.44819744846 b3lypvdz=-287.67004815326
C      31.28800000     22.20100000     16.41700000
C      32.77600000     22.51900000     16.57700000
O      33.23300000     23.65900000     16.38400000
C      30.52000000     22.30000000     17.76400000
C      30.83200000     23.69900000     18.35800000
N      33.54800000     21.52600000     16.95000000
H      30.85300000     22.93800000     15.72600000
H      30.88200000     21.52100000     18.45100000
H      30.30700000     23.81600000     19.31800000
H      31.91600000     23.79500000     18.51900000
H      30.49400000     24.47800000     17.65800000
H      33.14600000     20.63400000     17.15600000
H      31.15610000     21.19280000     15.99730000
H      29.45860000     22.11980000     17.53830000
H      34.53630000     21.65660000     17.02930000
