11
pbedef2svp=-264.04439723004 b3lypdef2svp=-264.20661256028 b3lypvdz=-264.41279465838
N      19.99300000     20.88400000     14.04900000
C      19.06500000     21.35200000     12.99900000
C      19.44200000     22.74500000     12.51000000
O      18.57100000     23.61000000     12.28900000
N      20.71700000     22.96400000     12.26000000
H      20.50600000     20.03400000     13.92400000
H      19.16200000     20.67100000     12.14100000
H      21.38500000     22.24600000     12.45600000
H      20.10630000     21.42070000     14.88520000
H      18.01610000     21.30240000     13.32660000
H      21.02970000     23.83380000     11.87830000
