14
pbedef2svp=-361.14197955205 b3lypdef2svp=-361.36299651547 b3lypvdz=-361.6485613601
C      30.50500000     33.88400000      6.51200000
C      31.40900000     32.68000000      6.44600000
O      32.61900000     32.81200000      6.12500000
N      30.88400000     31.48500000      6.66600000
C      31.67700000     30.27500000      6.63900000
C      31.02200000     29.28800000      5.66500000
O      29.80900000     29.39500000      5.54500000
H      29.59500000     33.63500000      7.07700000
H      29.90500000     31.41600000      6.85800000
H      32.72700000     30.46400000      6.36900000
H      31.04940000     34.69580000      7.01660000
H      30.21620000     34.23900000      5.51170000
H      31.59430000     29.85120000      7.65070000
H      31.70340000     28.55290000      5.21190000
