7
pbedef2svp=-153.5221311854 b3lypdef2svp=-153.62149134033 b3lypvdz=-153.7434416169
C      31.40900000     32.68000000      6.44600000
O      32.61900000     32.81200000      6.12500000
C      30.50500000     33.88400000      6.51200000
H      29.59500000     33.63500000      7.07700000
H      30.97270000     31.68690000      6.62880000
H      31.04940000     34.69580000      7.01660000
H      30.21620000     34.23900000      5.51170000
