12
pbedef2svp=-305.85080630706 b3lypdef2svp=-306.04007575747 b3lypvdz=-306.28458456906
C      41.71800000     30.02200000     10.64300000
C      41.39900000     31.33800000      9.96700000
O      42.26000000     32.03600000      9.38100000
C      41.39800000     28.78000000      9.81000000
C      42.62600000     28.55700000      8.92800000
O      43.66600000     28.26200000      9.53900000
H      42.79800000     30.00900000     10.85200000
H      41.23000000     27.91100000     10.46300000
H      40.50500000     28.95100000      9.19100000
H      41.18550000     29.91510000     11.59960000
H      40.35190000     31.67450000      9.98420000
H      42.45250000     28.78280000      7.86550000
