20
pbedef2svp=-364.69912470953
C      27.29900000     17.05500000     13.53300000
O      25.92500000     16.61100000     13.91300000
C      26.08400000     21.88800000     11.83300000
C      27.42600000     22.61600000     11.90200000
N      31.51000000     18.93600000     12.85200000
C      30.49100000     19.16200000     12.04000000
O      29.36700000     19.52300000     12.44100000
H      27.28300000     17.48700000     12.52200000
H      25.65000000     15.90600000     13.33900000
H      27.49310000     17.85740000     14.25990000
H      27.97910000     16.19060000     13.55110000
H      26.14900000     21.16800000     11.00400000
H      25.31800000     22.64300000     11.60300000
H      28.23400000     21.90500000     12.13000000
H      25.73480000     21.33280000     12.71610000
H      27.63490000     23.13470000     10.95470000
H      27.39290000     23.41200000     12.66050000
H      32.38900000     18.66700000     12.45900000
H      31.43240000     19.02460000     13.84500000
H      30.71360000     19.10430000     10.96430000
