7
pbedef2svp=-95.63933892768 b3lypdef2svp=-95.70873085717 b3lypvdz=-95.78004068158
N      26.84900000     29.65600000      6.21700000
C      26.23500000     30.05800000      7.49700000
H      27.84300000     29.68800000      6.11500000
H      25.16500000     30.24200000      7.32000000
H      26.28340000     29.35170000      5.45050000
H      26.69170000     31.02500000      7.75460000
H      26.31330000     29.33410000      8.32150000
