14
pbedef2svp=-307.0365588014
C      23.04600000     27.08700000     22.91300000
O      23.38300000     27.62700000     21.87000000
C      25.03400000     30.17000000     20.40100000
C      24.10100000     30.14900000     19.19600000
O      24.19600000     30.94800000     18.28700000
C      24.63900000     31.42600000     21.28600000
H      21.97730000     26.87910000     23.07020000
H      23.74860000     26.78370000     23.70320000
H      24.85900000     29.26400000     21.00000000
H      24.67100000     32.30400000     20.62400000
H      26.09140000     30.21680000     20.10160000
H      23.32440000     29.37080000     19.23240000
H      25.35980000     31.60060000     22.09840000
H      23.60990000     31.34340000     21.66570000
