18
pbedef2svp=-326.48751220528 b3lypdef2svp=-326.70160054649 b3lypvdz=-326.95202693436
C      29.90300000     24.59000000      7.66500000
C      28.47600000     25.13500000      7.70500000
C      31.22000000     27.34100000      4.27500000
C      31.44000000     26.07900000      5.08000000
O      32.57600000     25.80200000      5.46100000
N      30.31000000     25.45800000      5.38400000
C      30.28800000     24.24500000      6.19300000
H      29.89100000     23.63600000      8.21200000
H      28.20500000     25.37800000      8.74300000
H      28.41300000     26.04300000      7.08700000
H      27.78300000     24.37600000      7.31300000
H      30.13900000     27.52500000      4.18300000
H      29.44600000     25.83300000      5.04800000
H      31.28700000     23.78400000      6.19600000
H      30.60400000     25.25220000      8.19420000
H      31.67060000     28.12700000      4.89880000
H      31.66200000     27.28350000      3.26940000
H      29.56540000     23.51590000      5.79770000
