18
pbedef2svp=-272.3256298811
C      23.81200000     34.03100000      5.67700000
C      24.14700000     33.96600000      7.03800000
C      21.02300000     31.22300000      4.78400000
C      21.86100000     31.34200000      3.47400000
O      23.57900000     31.32100000      9.55400000
C      22.50400000     31.22800000     10.13600000
H      22.94800000     33.51100000      5.29000000
H      23.51900000     33.41800000      7.72500000
H      24.45850000     34.62870000      5.01770000
H      25.05090000     34.47540000      7.40320000
H      20.13500000     30.60100000      4.60000000
H      20.70800000     32.22400000      5.11400000
H      22.03900000     32.40600000      3.26000000
H      22.82400000     30.83100000      3.61900000
H      21.64800000     30.75640000      5.55960000
H      21.34160000     30.88810000      2.61710000
H      21.73270000     30.53490000      9.76920000
H      22.28250000     31.77120000     11.06650000
