19
pbedef2svp=-310.43009469223 b3lypdef2svp=-310.63969980954 b3lypvdz=-310.87802514652
C      31.28800000     22.20100000     16.41700000
C      32.77600000     22.51900000     16.57700000
O      33.23300000     23.65900000     16.38400000
C      30.52000000     22.30000000     17.76400000
C      29.00600000     22.04300000     17.44200000
C      30.83200000     23.69900000     18.35800000
C      28.40700000     22.94800000     16.36600000
H      30.85300000     22.93800000     15.72600000
H      30.88200000     21.52100000     18.45100000
H      28.90200000     21.00100000     17.10700000
H      28.43100000     22.19000000     18.36800000
H      30.30700000     23.81600000     19.31800000
H      31.91600000     23.79500000     18.51900000
H      30.49400000     24.47800000     17.65800000
H      27.34900000     22.68900000     16.21600000
H      28.48600000     23.99800000     16.68500000
H      28.95600000     22.80900000     15.42300000
H      31.15610000     21.19280000     15.99730000
H      33.42330000     21.68640000     16.88970000
