15
pbedef2svp=-378.32224787848
C      36.33400000     31.74200000     23.08700000
O      35.57400000     32.61800000     23.48300000
N      36.00000000     30.86000000     22.17200000
N      41.18900000     32.08500000     19.03100000
C      41.46100000     30.75100000     19.59400000
C      40.16800000     30.02600000     19.91800000
O      39.26400000     30.66200000     20.52100000
H      36.65600000     30.13900000     21.94800000
H      37.33660000     31.66700000     23.53330000
H      35.12530000     30.87040000     21.68750000
H      42.11200000     30.14800000     18.94400000
H      40.63190000     32.23030000     18.21340000
H      41.61300000     32.82380000     19.55480000
H      41.97880000     31.02680000     20.52450000
H      40.07650000     28.96140000     19.65690000
