15
pbedef2svp=-378.38362255473 b3lypdef2svp=-378.6162231792 b3lypvdz=-378.91323739098
N      26.58500000     20.06300000     13.37800000
C      26.48200000     19.28000000     14.43200000
O      25.60900000     19.38800000     15.28700000
N      31.51000000     18.93600000     12.85200000
C      31.39800000     19.06400000     14.28600000
C      30.49100000     19.16200000     12.04000000
O      29.36700000     19.52300000     12.44100000
H      27.36400000     19.94300000     12.76300000
H      25.91220000     20.77310000     13.17030000
H      27.25840000     18.50640000     14.52510000
H      32.38900000     18.66700000     12.45900000
H      30.40500000     18.73500000     14.62700000
H      31.53670000     20.12320000     14.54850000
H      32.16550000     18.45290000     14.78340000
H      30.71360000     19.10430000     10.96430000
