14
pbedef2svp=-307.0529367444
C      21.55000000     26.79600000     23.13300000
C      23.04600000     27.08700000     22.91300000
O      23.38300000     27.62700000     21.87000000
C      25.03400000     30.17000000     20.40100000
C      24.10100000     30.14900000     19.19600000
O      24.19600000     30.94800000     18.28700000
H      21.34400000     26.67500000     24.20700000
H      20.98910000     27.64600000     22.71730000
H      21.32540000     25.86490000     22.59200000
H      23.74860000     26.78370000     23.70320000
H      24.85900000     29.26400000     21.00000000
H      26.09140000     30.21680000     20.10160000
H      24.76010000     31.04090000     21.01460000
H      23.32440000     29.37080000     19.23240000
