9
pbedef2svp=-208.74960049588 b3lypdef2svp=-208.88049749191 b3lypvdz=-209.04533044339
N      31.23300000     21.09000000     21.45900000
C      32.26200000     20.67000000     20.51400000
C      32.12800000     19.36400000     19.75000000
O      32.54600000     19.31700000     18.55800000
H      31.54300000     21.39500000     22.36000000
H      32.31500000     21.45700000     19.74700000
H      30.24720000     21.10220000     21.29180000
H      33.23390000     20.70250000     21.02820000
H      31.76700000     18.48210000     20.29940000
