24
pbedef2svp=-238.92181275301
C      38.52800000     32.85400000     23.18200000
C      39.91900000     32.85400000     23.84000000
C      35.92600000     35.97900000     21.73700000
C      35.00300000     35.08400000     20.92000000
C      39.50200000     37.34000000     26.00200000
C      38.68400000     36.64700000     24.92300000
H      38.63400000     32.78100000     22.09000000
H      37.99600000     33.78200000     23.43800000
H      39.79500000     32.89900000     24.93200000
H      40.44000000     31.92400000     23.56800000
H      37.96540000     31.98740000     23.55940000
H      40.52860000     33.71070000     23.51670000
H      36.73600000     35.36100000     22.15200000
H      35.56200000     34.65300000     20.07600000
H      34.62000000     34.27400000     21.55700000
H      34.16100000     35.67900000     20.53700000
H      35.34590000     36.39700000     22.57290000
H      36.36930000     36.78820000     21.13810000
H      40.56300000     37.08500000     25.86300000
H      39.03200000     36.97300000     23.93200000
H      38.80500000     35.55700000     25.01400000
H      37.62200000     36.90900000     25.04300000
H      39.19650000     37.05110000     27.01850000
H      39.38330000     38.42890000     25.90130000
