9
pbedef2svp=-208.79502445777 b3lypdef2svp=-208.92520917663 b3lypvdz=-209.08844388801
C      28.37500000     17.99900000     16.88700000
O      29.32600000     18.78600000     16.69000000
C      27.57400000     18.19200000     14.56300000
N      27.51000000     17.68900000     15.95400000
H      28.56000000     18.63600000     14.36100000
H      26.75900000     17.07400000     16.19600000
H      28.18190000     17.59410000     17.89140000
H      26.79760000     18.96560000     14.46990000
H      27.37990000     17.38960000     13.83610000
