11
pbedef2svp=-209.92075132317 b3lypdef2svp=-210.06143579293 b3lypvdz=-210.22575488748
C      27.15100000     33.36200000     10.65000000
O      26.35000000     32.77800000     11.39500000
N      24.79000000     32.02100000     13.61800000
C      25.14900000     31.60900000     14.98000000
H      26.87370000     33.41610000      9.58690000
H      28.06890000     33.84290000     11.01910000
H      25.50600000     32.15100000     12.93200000
H      24.28500000     31.20800000     15.53000000
H      23.83250000     32.17270000     13.37280000
H      25.54030000     32.51210000     15.47110000
H      25.97710000     30.88500000     14.97070000
