6
pbedef2svp=-78.4079470263 b3lypdef2svp=-78.46906903117 b3lypvdz=-78.52875164313
C      22.94500000     21.95100000     17.78500000
C      24.27200000     21.54400000     17.64400000
H      24.69800000     21.42900000     16.65800000
H      22.31860000     22.17170000     16.90810000
H      22.54370000     22.11370000     18.79620000
H      24.88530000     21.34030000     18.53410000
