10
pbedef2svp=-192.74434018634 b3lypdef2svp=-192.87198441829 b3lypvdz=-193.02294293442
C      39.07600000     34.93100000     29.03100000
O      38.29700000     34.94600000     29.99600000
C      39.08000000     36.94100000     27.40600000
C      38.66800000     35.50200000     27.68000000
H      38.22400000     37.57700000     27.67600000
H      39.92700000     37.16400000     28.07100000
H      39.13700000     34.87600000     26.90700000
H      40.08790000     34.49980000     29.04260000
H      39.38550000     37.22990000     26.38950000
H      37.57780000     35.42420000     27.55620000
