6
pbedef2svp=-78.40597273648 b3lypdef2svp=-78.46713595624 b3lypvdz=-78.52682704273
C      25.81000000     35.39200000      5.26700000
C      24.62000000     34.77800000      4.85300000
H      26.45800000     35.88500000      4.55700000
H      24.31900000     34.89900000      3.82300000
H      26.06400000     35.35620000      6.33670000
H      23.97350000     34.18030000      5.51230000
