13
pbedef2svp=-231.97130668623 b3lypdef2svp=-232.12691778733 b3lypvdz=-232.30688717401
C      39.07600000     34.93100000     29.03100000
O      38.29700000     34.94600000     29.99600000
C      39.08000000     36.94100000     27.40600000
C      39.50200000     37.34000000     26.00200000
C      38.66800000     35.50200000     27.68000000
H      38.22400000     37.57700000     27.67600000
H      39.92700000     37.16400000     28.07100000
H      40.56300000     37.08500000     25.86300000
H      39.13700000     34.87600000     26.90700000
H      40.08790000     34.49980000     29.04260000
H      38.91040000     36.83880000     25.22170000
H      39.38330000     38.42890000     25.90130000
H      37.57780000     35.42420000     27.55620000
