15
pbedef2svp=-378.3947930676
O      29.80900000     29.39500000      5.54500000
N      31.83400000     28.41200000      5.12500000
C      31.02200000     29.28800000      5.66500000
C      26.85000000     29.02100000      3.89800000
C      26.10000000     29.25300000      5.20200000
O      24.86500000     29.02400000      5.33000000
N      26.84900000     29.65600000      6.21700000
H      32.82200000     28.45600000      5.27400000
H      31.42440000     27.69750000      4.55790000
H      31.49180000     29.99600000      6.36360000
H      27.91400000     28.87800000      4.13600000
H      27.84300000     29.68800000      6.11500000
H      26.47150000     28.10150000      3.42760000
H      26.76460000     29.84380000      3.17300000
H      26.43290000     29.92850000      7.08450000
