14
pbedef2svp=-249.15418913279 b3lypdef2svp=-249.32341032844 b3lypvdz=-249.51817421593
O      32.57600000     25.80200000      5.46100000
C      31.44000000     26.07900000      5.08000000
N      34.91400000     24.94400000      6.44100000
C      34.75800000     25.28000000      8.90000000
C      34.79300000     24.26400000      7.76700000
H      31.28000000     26.99650000      4.49470000
H      30.50170000     25.56340000      5.33240000
H      34.93500000     24.25700000      5.71400000
H      34.13000000     25.55000000      6.30400000
H      34.16900000     24.86400000      9.73100000
H      34.27900000     26.20100000      8.53600000
H      35.65600000     23.59600000      7.90900000
H      33.86500000     23.67300000      7.78500000
H      35.76530000     25.52550000      9.26750000
