19
pbedef2svp=-310.43322844885 b3lypdef2svp=-310.64353732086 b3lypvdz=-310.88182533531
C      40.22600000     33.71600000     17.50900000
C      40.44900000     32.27800000     17.94500000
O      39.93600000     31.33600000     17.31500000
C      38.69300000     34.10600000     17.59500000
C      38.47100000     35.54600000     17.04500000
C      38.14600000     33.93200000     19.02700000
C      36.95800000     35.74600000     16.68000000
H      40.79400000     34.38800000     18.16900000
H      38.14400000     33.41300000     16.94100000
H      38.76200000     36.27900000     17.81200000
H      39.08700000     35.69300000     16.14500000
H      37.08200000     34.21100000     19.05000000
H      38.25700000     32.88200000     19.33700000
H      38.70900000     34.57900000     19.71600000
H      36.80500000     36.76400000     16.29200000
H      36.66600000     35.01400000     15.91300000
H      36.34200000     35.60000000     17.57900000
H      40.53700000     33.86550000     16.46450000
H      41.06180000     32.11820000     18.84440000
