10
pbedef2svp=-192.69165542385
C      26.48200000     19.28000000     14.43200000
O      25.60900000     19.38800000     15.28700000
C      22.94500000     21.95100000     17.78500000
C      24.27200000     21.54400000     17.64400000
H      27.25840000     18.50640000     14.52510000
H      26.56800000     19.93400000     13.55170000
H      24.69800000     21.42900000     16.65800000
H      22.31860000     22.17170000     16.90810000
H      22.54370000     22.11370000     18.79620000
H      24.88530000     21.34030000     18.53410000
