9
pbedef2svp=-208.80578195238 b3lypdef2svp=-208.93662023878 b3lypvdz=-209.10016040043
N      29.72100000     43.67300000     15.88500000
C      31.42200000     43.94000000     17.55300000
C      30.75500000     44.35100000     16.27700000
O      31.20700000     45.26800000     15.56600000
H      29.42000000     42.90600000     16.45100000
H      31.15100000     44.66200000     18.33700000
H      29.20720000     43.87150000     15.05040000
H      31.10650000     42.93780000     17.87880000
H      32.51930000     43.92450000     17.47690000
