13
pbedef2svp=-231.97592950752 b3lypdef2svp=-232.13168018381 b3lypvdz=-232.31167542805
C      31.19100000     42.01200000     12.33100000
C      30.45900000     40.66600000     12.13000000
O      30.25300000     39.99100000     13.13300000
C      32.67200000     41.71700000     12.50500000
C      33.28000000     41.08600000     11.22700000
H      31.04300000     42.64100000     11.44100000
H      33.20000000     42.65600000     12.72600000
H      32.80100000     41.01800000     13.34500000
H      32.75600000     40.14700000     10.99400000
H      33.17300000     41.78500000     10.38400000
H      30.71680000     42.47330000     13.20980000
H      30.21240000     40.39270000     11.09340000
H      34.34620000     40.87950000     11.40180000
