7
pbedef2svp=-95.63991896236 b3lypdef2svp=-95.70938420725 b3lypvdz=-95.78070360681
N      23.14100000     29.18700000     19.24100000
C      22.12600000     29.06200000     18.18300000
H      23.12400000     28.54900000     20.01100000
H      21.95700000     30.04300000     17.71400000
H      23.84700000     29.89450000     19.20790000
H      21.20430000     28.75290000     18.69770000
H      22.39300000     28.33290000     17.40380000
