12
pbedef2svp=-339.15699098974 b3lypdef2svp=-339.36103199935 b3lypvdz=-339.62949664827
C      30.95500000     35.21100000      8.45900000
O      30.02500000     34.61800000      9.04000000
N      31.24400000     34.98600000      7.19700000
C      27.15100000     33.36200000     10.65000000
O      26.35000000     32.77800000     11.39500000
N      28.26000000     33.94300000     11.09600000
H      31.93100000     35.53000000      6.71500000
H      31.51460000     35.99950000      8.98350000
H      30.74910000     34.24800000      6.73830000
H      28.87600000     34.37900000     10.44000000
H      26.87370000     33.41610000      9.58690000
H      28.49810000     33.95820000     12.06710000
