10
pbedef2svp=-192.73953082183 b3lypdef2svp=-192.86603440529 b3lypvdz=-193.01760615437
C      35.16100000     34.17400000     26.89600000
C      36.67100000     34.29600000     27.08900000
O      37.30500000     33.23300000     26.79500000
C      34.71700000     32.76000000     27.28600000
H      34.63100000     34.92600000     27.50000000
H      33.77000000     32.82600000     27.84100000
H      34.56500000     32.17100000     26.37000000
H      34.98910000     34.33030000     25.82080000
H      37.11890000     35.23360000     27.45010000
H      35.46230000     32.25160000     27.91540000
