11
pbedef2svp=-118.86797731665 b3lypdef2svp=-118.96110306637 b3lypvdz=-119.04802878776
C      29.96300000     33.31700000     12.81400000
C      29.95700000     31.83800000     12.35200000
C      28.60500000     33.96500000     12.50300000
H      30.75600000     33.85900000     12.27900000
H      30.93100000     31.37900000     12.57700000
H      29.16300000     31.29200000     12.88200000
H      29.77200000     31.79300000     11.26900000
H      27.82500000     33.46000000     13.09200000
H      30.14340000     33.37300000     13.89770000
H      28.34310000     33.94830000     11.43480000
H      28.62840000     35.02800000     12.78510000
