13
pbedef2svp=-265.22236615179 b3lypdef2svp=-265.39329238352 b3lypvdz=-265.60052060844
N      34.91400000     24.94400000      6.44100000
C      34.79300000     24.26400000      7.76700000
O      32.57600000     25.80200000      5.46100000
N      30.31000000     25.45800000      5.38400000
C      31.44000000     26.07900000      5.08000000
H      34.93500000     24.25700000      5.71400000
H      34.13000000     25.55000000      6.30400000
H      35.65600000     23.59600000      7.90900000
H      33.86500000     23.67300000      7.78500000
H      34.76770000     24.99820000      8.58570000
H      29.44600000     25.83300000      5.04800000
H      30.29490000     24.62620000      5.93880000
H      31.28000000     26.99650000      4.49470000
