7
pbedef2svp=-153.52353267017 b3lypdef2svp=-153.62325426372 b3lypvdz=-153.74524058582
C      31.39800000     19.06400000     14.28600000
C      31.59300000     20.55300000     14.65500000
O      32.15900000     21.31100000     13.86100000
H      30.40500000     18.73500000     14.62700000
H      31.48330000     18.96650000     13.19370000
H      32.16550000     18.45290000     14.78340000
H      31.19710000     20.80870000     15.64890000
