13
pbedef2svp=-323.07659588045
C      30.05200000     35.04200000     20.00400000
O      30.10500000     36.30500000     19.78800000
C      30.22500000     38.64300000     16.66200000
N      29.42600000     38.43000000     15.44600000
C      28.46900000     37.47500000     15.42000000
O      28.21300000     36.75300000     16.41100000
H      29.86790000     34.38390000     19.14200000
H      30.11320000     34.60920000     21.01340000
H      30.16200000     37.75100000     17.30200000
H      29.59100000     38.99300000     14.63600000
H      29.82170000     39.50280000     17.21700000
H      31.28290000     38.80740000     16.40920000
H      27.89990000     37.35800000     14.48590000
