13
pbedef2svp=-377.18842483953 b3lypdef2svp=-377.409891694 b3lypvdz=-377.70848198364
C      38.42100000     28.04800000     21.34100000
O      37.21300000     28.03600000     21.70400000
N      39.37400000     28.09000000     22.24000000
C      39.06300000     28.06300000     23.69500000
C      38.36500000     29.33500000     24.15900000
O      37.68400000     29.39000000     25.22100000
N      38.41900000     30.37300000     23.34100000
H      40.32700000     28.14100000     21.94300000
H      38.35200000     27.23900000     23.85600000
H      38.91700000     30.30600000     22.47600000
H      38.71040000     28.02750000     20.27990000
H      39.97620000     27.79770000     24.24780000
H      37.95980000     31.22540000     23.59120000
