14
pbedef2svp=-361.14081913546 b3lypdef2svp=-361.36174563851 b3lypvdz=-361.6474302471
C      30.47900000     35.36900000     22.37400000
C      31.90100000     34.91000000     22.72800000
O      32.19000000     33.69600000     22.63500000
N      32.76300000     35.83100000     23.09000000
C      34.14500000     35.47200000     23.48100000
C      34.23900000     35.35300000     24.97900000
O      33.70700000     36.19700000     25.72800000
H      30.50500000     36.43000000     22.08400000
H      32.48200000     36.79100000     23.10200000
H      34.41100000     34.50500000     23.02800000
H      30.21720000     34.75240000     21.50150000
H      29.75060000     35.23300000     23.18700000
H      34.82450000     36.23770000     23.07850000
H      34.83270000     34.52050000     25.38450000
