12
pbedef2svp=-247.98532700208 b3lypdef2svp=-248.14382049536 b3lypvdz=-248.33789813528
C      29.27900000     23.22700000      5.64100000
O      28.47800000     23.52200000      4.72500000
C      29.90300000     24.59000000      7.66500000
N      30.31000000     25.45800000      5.38400000
C      30.28800000     24.24500000      6.19300000
H      29.89100000     23.63600000      8.21200000
H      29.44600000     25.83300000      5.04800000
H      31.28700000     23.78400000      6.19600000
H      29.36350000     22.24810000      6.13550000
H      30.60400000     25.25220000      8.19420000
H      28.87570000     24.98230000      7.69380000
H      31.16300000     25.92680000      5.15450000
