18
pbedef2svp=-326.47507803635 b3lypdef2svp=-326.68813336973 b3lypvdz=-326.93911689079
C      38.72800000     26.59100000     12.61100000
O      39.70400000     27.34600000     12.27700000
N      37.63300000     26.54300000     11.86700000
C      37.47100000     27.39100000     10.66800000
C      36.19300000     27.05800000      9.91100000
C      36.15300000     25.62000000      9.40900000
C      34.75800000     25.28000000      8.90000000
H      36.89700000     25.91700000     12.12400000
H      38.32600000     27.22700000      9.99500000
H      35.33700000     27.21800000     10.58200000
H      36.11200000     27.73300000      9.04600000
H      36.87800000     25.50100000      8.59000000
H      36.41500000     24.94000000     10.23300000
H      34.16900000     24.86400000      9.73100000
H      34.27900000     26.20100000      8.53600000
H      38.77580000     25.98950000     13.53070000
H      37.44960000     28.45600000     10.94230000
H      34.78330000     24.54580000      8.08130000
