11
pbedef2svp=-321.90577993418 b3lypdef2svp=-322.10010811779 b3lypvdz=-322.35594097909
C      26.48200000     19.28000000     14.43200000
O      25.60900000     19.38800000     15.28700000
N      26.58500000     20.06300000     13.37800000
C      25.59400000     21.10900000     13.07200000
C      24.24100000     20.43600000     12.85700000
O      23.26400000     20.95100000     13.32900000
H      27.36400000     19.94300000     12.76300000
H      25.51600000     21.80500000     13.92000000
H      27.25840000     18.50640000     14.52510000
H      25.94320000     21.66420000     12.18890000
H      24.24020000     19.45520000     12.35890000
