9
pbedef2svp=-208.80649688114 b3lypdef2svp=-208.93769048689 b3lypvdz=-209.10093455327
C      29.01500000     21.65700000     22.28800000
C      29.94200000     21.10600000     21.24000000
O      29.47000000     20.67700000     20.19000000
N      31.23300000     21.09000000     21.45900000
H      29.58400000     22.29400000     22.98200000
H      31.54300000     21.39500000     22.36000000
H      28.21680000     22.24540000     21.81190000
H      28.53100000     20.84640000     22.85260000
H      31.93830000     20.80210000     20.81120000
