9
pbedef2svp=-208.79342712191 b3lypdef2svp=-208.92415728512 b3lypvdz=-209.08717493441
C      21.46000000     18.73700000     16.16300000
O      20.49700000     18.50600000     16.90000000
N      21.84600000     19.95400000     15.90500000
C      21.07900000     21.14900000     16.25100000
H      22.72300000     20.07900000     15.44100000
H      20.48400000     20.94600000     17.15300000
H      22.14790000     17.94780000     15.82550000
H      20.39740000     21.46980000     15.44940000
H      21.80210000     21.94330000     16.48820000
