8
pbedef2svp=-79.63840331619 b3lypdef2svp=-79.7036683657 b3lypvdz=-79.76127014047
C      34.76200000     40.79900000     11.47000000
C      35.61400000     40.84700000     10.24000000
H      35.14400000     41.54500000     12.18200000
H      34.85000000     39.79400000     11.91000000
H      35.70300000     41.89800000      9.92700000
H      36.60900000     40.45600000     10.49800000
H      33.69580000     41.00550000     11.29520000
H      35.22930000     40.26780000      9.38760000
