18
pbedef2svp=-326.49107816659 b3lypdef2svp=-326.70564539132 b3lypvdz=-326.95590185222
N      28.26000000     33.94300000     11.09600000
C      28.60500000     33.96500000     12.50300000
C      29.96300000     33.31700000     12.81400000
C      26.77200000     33.43600000      9.19700000
C      27.15100000     33.36200000     10.65000000
O      26.35000000     32.77800000     11.39500000
C      25.69500000     34.49800000      8.94600000
H      28.87600000     34.37900000     10.44000000
H      27.82500000     33.46000000     13.09200000
H      30.75600000     33.85900000     12.27900000
H      27.66100000     33.67200000      8.59400000
H      24.80600000     34.23900000      9.53900000
H      26.08400000     35.47300000      9.27400000
H      28.62840000     35.02800000     12.78510000
H      30.14340000     33.37300000     13.89770000
H      29.95870000     32.26700000     12.48600000
H      26.36600000     32.46180000      8.88710000
H      25.39800000     34.57900000      7.89000000
