15
pbedef2svp=-175.28063711353
N      29.42600000     38.43000000     15.44600000
C      30.22500000     38.64300000     16.66200000
C      30.92500000     34.30400000     17.75300000
C      32.34500000     34.18300000     18.35800000
H      29.59100000     38.99300000     14.63600000
H      30.16200000     37.75100000     17.30200000
H      28.71830000     37.72380000     15.42680000
H      29.82170000     39.50280000     17.21700000
H      31.28290000     38.80740000     16.40920000
H      30.79800000     33.52100000     16.99100000
H      30.82500000     35.29300000     17.28200000
H      32.46000000     34.90800000     19.17700000
H      30.13450000     34.19220000     18.50970000
H      32.49840000     33.16000000     18.73210000
H      33.07160000     34.40330000     17.56200000
