7
pbedef2svp=-153.52413111239 b3lypdef2svp=-153.62354735592 b3lypvdz=-153.74565246457
C      35.03100000     21.72200000     17.06900000
C      35.61500000     22.19000000     15.75900000
O      36.53200000     23.04600000     15.72400000
H      35.24600000     22.46200000     17.85400000
H      33.94390000     21.57830000     16.98180000
H      35.48830000     20.75920000     17.34080000
H      35.21920000     21.71940000     14.84690000
