8
pbedef2svp=-79.64023386714 b3lypdef2svp=-79.70546758274 b3lypvdz=-79.76318360526
C      25.64600000     31.67000000     22.42100000
C      25.77800000     30.43600000     23.35600000
H      26.63000000     31.89000000     21.98200000
H      25.30900000     32.53200000     23.01600000
H      26.50600000     30.65400000     24.15100000
H      24.80000000     30.21100000     23.80600000
H      26.12100000     29.56900000     22.77200000
H      24.92520000     31.49540000     21.60860000
