13
pbedef2svp=-323.10644882594 b3lypdef2svp=-323.30552156258 b3lypvdz=-323.55933674553
C      23.46100000     17.33100000     16.74100000
C      24.18400000     16.01600000     16.61900000
O      25.30300000     15.89400000     17.15200000
O      23.57200000     15.10700000     15.97500000
N      22.99700000     17.97800000     14.36600000
C      22.41800000     17.63800000     15.69300000
H      24.21600000     18.13000000     16.70200000
H      22.96200000     17.34600000     17.72100000
H      24.10000000     14.31700000     15.96200000
H      23.99100000     18.00600000     14.25900000
H      21.81600000     16.72700000     15.56300000
H      22.41550000     18.17940000     13.57780000
H      21.73010000     18.42720000     16.03050000
