17
pbedef2svp=-342.49748812234 b3lypdef2svp=-342.71371672286 b3lypvdz=-342.97813115298
C      29.27900000     23.22700000      5.64100000
O      28.47800000     23.52200000      4.72500000
C      29.90300000     24.59000000      7.66500000
C      28.47600000     25.13500000      7.70500000
N      29.38000000     22.05700000      6.23200000
N      30.31000000     25.45800000      5.38400000
C      30.28800000     24.24500000      6.19300000
H      29.89100000     23.63600000      8.21200000
H      28.20500000     25.37800000      8.74300000
H      28.41300000     26.04300000      7.08700000
H      27.78300000     24.37600000      7.31300000
H      30.12100000     21.92300000      6.89000000
H      29.44600000     25.83300000      5.04800000
H      31.28700000     23.78400000      6.19600000
H      30.60400000     25.25220000      8.19420000
H      28.75700000     21.29400000      6.05990000
H      31.16300000     25.92680000      5.15450000
