13
pbedef2svp=-231.97703528066 b3lypdef2svp=-232.13252059943 b3lypvdz=-232.31255598943
C      33.53300000     25.09700000     12.97800000
C      34.44100000     26.09900000     13.68400000
O      34.88300000     27.09000000     13.09300000
C      32.06000000     25.25700000     13.36400000
C      31.68400000     26.74900000     13.34200000
H      33.61300000     25.28200000     11.89700000
H      31.94400000     24.89900000     14.39800000
H      30.62600000     26.86500000     13.61900000
H      32.31300000     27.29600000     14.06000000
H      31.84500000     27.15300000     12.33100000
H      33.89050000     24.07720000     13.18320000
H      34.68380000     25.86950000     14.73200000
H      31.40290000     24.65200000     12.72210000
