18
pbedef2svp=-235.27545103661
C      24.94200000     28.80700000     13.95200000
C      26.29000000     29.48000000     13.96000000
C      21.44700000     27.86900000     16.02600000
C      21.32500000     28.81300000     15.00500000
C      20.63800000     26.73500000     16.05300000
C      19.67700000     26.53900000     15.05100000
H      24.94200000     27.99400000     13.21100000
H      24.73300000     28.39300000     14.95000000
H      24.16700000     29.54200000     13.69000000
H      26.46700000     29.91100000     12.96300000
H      26.30460000     30.29590000     14.69760000
H      27.07870000     28.73780000     14.15240000
H      21.97400000     29.67600000     14.99200000
H      20.75100000     26.00800000     16.84400000
H      19.01600000     25.68500000     15.08000000
H      22.20570000     28.00520000     16.81080000
H      20.57180000     28.68300000     14.21400000
H      19.61040000     27.27310000     14.23450000
