19
pbedef2svp=-347.4230349154
C      30.21000000     30.50900000     21.65000000
O      29.97800000     31.72600000     21.26900000
C      31.90100000     34.91000000     22.72800000
O      32.19000000     33.69600000     22.63500000
C      30.92500000     34.30400000     17.75300000
C      32.34500000     34.18300000     18.35800000
C      32.55500000     32.78300000     18.87000000
H      30.92970000     30.37810000     22.47150000
H      29.78370000     29.62250000     21.15760000
H      30.88240000     35.23880000     22.47440000
H      32.62350000     35.68200000     23.03140000
H      30.79800000     33.52100000     16.99100000
H      30.82500000     35.29300000     17.28200000
H      32.46000000     34.90800000     19.17700000
H      33.56400000     32.69700000     19.30000000
H      31.80600000     32.56000000     19.64400000
H      32.44800000     32.06900000     18.04000000
H      30.13450000     34.19220000     18.50970000
H      33.07160000     34.40330000     17.56200000
