11
pbedef2svp=-264.0438568065 b3lypdef2svp=-264.2058375689 b3lypvdz=-264.41210972279
N      34.73400000     25.82200000     14.94900000
C      35.59600000     26.71500000     15.73600000
C      36.97500000     26.82600000     15.10700000
O      37.57900000     27.92600000     15.15900000
N      37.49900000     25.74300000     14.57100000
H      34.36300000     24.99500000     15.37200000
H      35.14500000     27.71800000     15.76300000
H      36.99800000     24.88000000     14.63700000
H      34.51330000     26.03060000     13.99620000
H      35.68160000     26.34670000     16.76900000
H      38.38120000     25.75530000     14.10030000
