12
pbedef2svp=-248.02458952486 b3lypdef2svp=-248.1821927538 b3lypvdz=-248.37497776498
N      39.65500000     34.33500000     11.28500000
C      39.80800000     32.99400000      9.23300000
C      39.83700000     34.27100000      9.99500000
O      40.16400000     35.32300000      9.34500000
C      38.61500000     32.80100000      8.32000000
H      39.48700000     33.47600000     11.76900000
H      40.65200000     33.09000000      8.53400000
H      38.67800000     33.59500000      7.56100000
H      38.75200000     31.82100000      7.83900000
H      39.66950000     35.17360000     11.82950000
H      40.03650000     32.07410000      9.79130000
H      37.58130000     32.81660000      8.69570000
