7
pbedef2svp=-153.52205400084 b3lypdef2svp=-153.62150303277 b3lypvdz=-153.74357682465
C      36.73100000     30.57000000     12.64500000
C      38.14800000     30.98100000     13.06900000
O      38.54400000     32.15000000     12.85600000
H      36.42300000     31.20600000     11.80200000
H      36.79070000     29.52500000     12.30690000
H      36.01010000     30.71520000     13.46310000
H      38.76560000     30.24910000     13.61020000
