11
pbedef2svp=-118.84766850792 b3lypdef2svp=-118.94044381721 b3lypvdz=-119.02695763106
C      31.56200000     29.68600000      8.04500000
C      32.63100000     29.44400000      9.06000000
C      31.67700000     30.27500000      6.63900000
H      30.84400000     30.34400000      8.55700000
H      31.10600000     28.69700000      7.88900000
H      33.02000000     28.42800000      8.89700000
H      32.72700000     30.46400000      6.36900000
H      33.48990000     30.13090000      9.03820000
H      32.14020000     29.44760000     10.04440000
H      31.07410000     31.19490000      6.65950000
H      31.20720000     29.56700000      5.94040000
