5
pbedef2svp=-40.41424041945 b3lypdef2svp=-40.45111398623 b3lypvdz=-40.4796603221
C      30.52000000     22.30000000     17.76400000
H      30.88200000     21.52100000     18.45100000
H      31.06370000     22.22990000     16.81040000
H      29.45860000     22.11980000     17.53830000
H      30.74120000     23.29180000     18.18510000
