18
pbedef2svp=-363.49445919981
C      23.72700000     35.13100000     12.72200000
C      22.69900000     34.26700000     11.98500000
C      25.69800000     32.87600000     15.66900000
O      26.15800000     33.73000000     14.89400000
C      27.15100000     33.36200000     10.65000000
O      26.35000000     32.77800000     11.39500000
N      28.26000000     33.94300000     11.09600000
H      23.36200000     36.16700000     12.78000000
H      23.87600000     34.73700000     13.73800000
H      24.68200000     35.10900000     12.17700000
H      21.74500000     34.28200000     12.53300000
H      23.05330000     33.22760000     11.92010000
H      22.54660000     34.58290000     10.94240000
H      25.30670000     31.97290000     15.17790000
H      25.63210000     32.93510000     16.76540000
H      28.87600000     34.37900000     10.44000000
H      26.87370000     33.41610000      9.58690000
H      28.49810000     33.95820000     12.06710000
