5
pbedef2svp=-94.42706639948 b3lypdef2svp=-94.49106767459 b3lypvdz=-94.56646022071
C      27.13200000     32.42300000     26.57400000
N      27.63000000     33.65600000     26.46100000
H      26.91600000     34.35400000     26.51200000
H      27.74250000     31.51430000     26.46640000
H      26.04450000     32.32100000     26.70400000
