6
pbedef2svp=-169.57185280396 b3lypdef2svp=-169.67475054362 b3lypvdz=-169.80853680418
N      26.21400000     32.09700000      8.77100000
C      26.88200000     31.42800000      7.86200000
O      27.90600000     31.71100000      7.26400000
H      25.36900000     31.73600000      9.16600000
H      26.58310000     32.98270000      9.05280000
H      26.42530000     30.46100000      7.60440000
