16
pbedef2svp=-271.15206716044
C      22.82400000     34.51400000     17.78200000
C      23.97800000     35.12100000     18.12600000
C      25.03400000     30.17000000     20.40100000
C      24.10100000     30.14900000     19.19600000
O      24.19600000     30.94800000     18.28700000
C      24.63900000     31.42600000     21.28600000
H      22.56500000     33.48000000     17.95500000
H      22.19620000     35.27230000     17.29120000
H      24.88150000     34.71460000     18.60410000
H      23.87700000     36.18030000     17.84720000
H      24.85900000     29.26400000     21.00000000
H      24.67100000     32.30400000     20.62400000
H      26.09140000     30.21680000     20.10160000
H      23.32440000     29.37080000     19.23240000
H      25.35980000     31.60060000     22.09840000
H      23.60990000     31.34340000     21.66570000
