16
pbedef2svp=-213.28739912313 b3lypdef2svp=-213.44413869495 b3lypvdz=-213.60622869346
C      22.67400000     36.62700000     17.20000000
N      22.04500000     35.45500000     17.17300000
C      25.88400000     39.13900000     14.61500000
C      24.34800000     39.29600000     14.64200000
C      23.86500000     40.72300000     14.74900000
H      22.29600000     37.56400000     16.82000000
H      23.65000000     36.46560000     17.68100000
H      22.61570000     34.76560000     17.61920000
H      26.30200000     39.41600000     15.59400000
H      26.30900000     39.79000000     13.83700000
H      23.94200000     38.86500000     13.71500000
H      23.96100000     38.73700000     15.50600000
H      24.32800000     41.20500000     15.62300000
H      24.13900000     41.27500000     13.83800000
H      26.12570000     38.08920000     14.39280000
H      22.77110000     40.72080000     14.86500000
