14
pbedef2svp=-249.16709537279
N      26.43600000     30.23200000     20.00400000
C      25.03400000     30.17000000     20.40100000
C      21.55000000     26.79600000     23.13300000
C      23.04600000     27.08700000     22.91300000
O      23.38300000     27.62700000     21.87000000
H      26.73800000     30.99700000     19.43500000
H      24.85900000     29.26400000     21.00000000
H      27.10910000     29.54380000     20.27480000
H      24.36060000     30.15480000     19.53130000
H      24.76010000     31.04090000     21.01460000
H      21.34400000     26.67500000     24.20700000
H      20.98910000     27.64600000     22.71730000
H      21.32540000     25.86490000     22.59200000
H      23.74860000     26.78370000     23.70320000
