14
pbedef2svp=-249.15264457979
C      40.16800000     30.02600000     19.91800000
O      39.26400000     30.66200000     20.52100000
C      34.73800000     30.87500000     21.47300000
C      34.87600000     30.23700000     20.06600000
N      36.00000000     30.86000000     22.17200000
H      41.10530000     30.55160000     19.68310000
H      40.07650000     28.96140000     19.65690000
H      34.44500000     31.92400000     21.31900000
H      35.08000000     29.16300000     20.18800000
H      33.92600000     30.37100000     19.52700000
H      36.65600000     30.13900000     21.94800000
H      33.90320000     30.37660000     21.98740000
H      35.68390000     30.68000000     19.46510000
H      36.25420000     31.53120000     22.86830000
