13
pbedef2svp=-174.09859393265 b3lypdef2svp=-174.22372602553 b3lypvdz=-174.35315853491
C      31.15200000     24.42100000     12.47700000
N      34.00700000     23.74500000     13.25000000
C      33.53300000     25.09700000     12.97800000
C      32.06000000     25.25700000     13.36400000
H      30.10600000     24.56300000     12.78500000
H      31.27200000     24.73600000     11.43000000
H      31.42200000     23.35900000     12.57400000
H      33.39700000     23.08600000     13.69000000
H      33.61300000     25.28200000     11.89700000
H      31.94400000     24.89900000     14.39800000
H      34.93590000     23.47110000     13.00100000
H      34.18780000     25.81960000     13.48710000
H      31.79120000     26.32350000     13.34830000
