7
pbedef2svp=-149.66971765244 b3lypdef2svp=-149.76262448893 b3lypvdz=-149.88067624726
N      23.85300000     36.43200000     17.78100000
C      22.67400000     36.62700000     17.20000000
N      22.04500000     35.45500000     17.17300000
H      24.54200000     37.13900000     17.94000000
H      22.29600000     37.56400000     16.82000000
H      23.94480000     35.46900000     18.03440000
H      22.61570000     34.76560000     17.61920000
