11
pbedef2svp=-118.86723075316 b3lypdef2svp=-118.96033187708 b3lypvdz=-119.04714272877
C      28.40700000     22.94800000     16.36600000
C      30.52000000     22.30000000     17.76400000
C      29.00600000     22.04300000     17.44200000
H      27.34900000     22.68900000     16.21600000
H      28.48600000     23.99800000     16.68500000
H      28.95600000     22.80900000     15.42300000
H      30.88200000     21.52100000     18.45100000
H      28.90200000     21.00100000     17.10700000
H      28.43100000     22.19000000     18.36800000
H      31.06370000     22.22990000     16.81040000
H      30.74120000     23.29180000     18.18510000
