23
pbedef2svp=-312.80117239445
C      40.26900000     30.50800000     14.11500000
C      40.99600000     29.39900000     14.86500000
C      39.09000000     26.62900000     19.32500000
C      40.08200000     26.90400000     18.19800000
C      40.22600000     33.71600000     17.50900000
C      40.44900000     32.27800000     17.94500000
O      39.93600000     31.33600000     17.31500000
H      40.23000000     31.41000000     14.74400000
H      40.46600000     29.18400000     15.80400000
H      41.02200000     28.49200000     14.24300000
H      39.25060000     30.21550000     13.81960000
H      40.85770000     30.72260000     13.21090000
H      42.02450000     29.71770000     15.09000000
H      39.53200000     25.97200000     20.08900000
H      38.16800000     26.17200000     18.93700000
H      40.61100000     25.98900000     17.89400000
H      39.58500000     27.34800000     17.32300000
H      38.89320000     27.63190000     19.73170000
H      40.76120000     27.62030000     18.68340000
H      40.79400000     34.38800000     18.16900000
H      40.53700000     33.86550000     16.46450000
H      39.16150000     33.98680000     17.56870000
H      41.06180000     32.11820000     18.84440000
