10
pbedef2svp=-283.85287943541
C      26.91300000     26.63900000      3.53100000
O      27.88600000     26.46300000      4.26300000
C      29.27900000     23.22700000      5.64100000
O      28.47800000     23.52200000      4.72500000
N      29.38000000     22.05700000      6.23200000
H      26.45330000     25.76780000      3.04140000
H      26.42360000     27.59660000      3.29980000
H      30.12100000     21.92300000      6.89000000
H      30.00160000     23.95610000      6.03630000
H      28.75700000     21.29400000      6.05990000
