11
pbedef2svp=-321.90270298365 b3lypdef2svp=-322.09612746803 b3lypvdz=-322.35220866936
C      30.45900000     40.66600000     12.13000000
O      30.25300000     39.99100000     13.13300000
N      30.16300000     40.33800000     10.88600000
C      29.54200000     39.02000000     10.65300000
C      30.49400000     38.26100000      9.72900000
O      30.84900000     38.85000000      8.70600000
H      30.35300000     40.96100000     10.12800000
H      29.47700000     38.47800000     11.60800000
H      30.98010000     41.62410000     12.27310000
H      28.53770000     39.04040000     10.20460000
H      30.74240000     37.23280000     10.03100000
