16
pbedef2svp=-362.31749134139 b3lypdef2svp=-362.54768551215 b3lypvdz=-362.83299244477
C      24.18400000     16.01600000     16.61900000
O      25.30300000     15.89400000     17.15200000
C      28.37500000     17.99900000     16.88700000
O      29.32600000     18.78600000     16.69000000
N      27.51000000     17.68900000     15.95400000
C      27.57400000     18.19200000     14.56300000
C      28.10800000     17.43900000     18.27600000
H      23.65580000     16.97670000     16.70810000
H      23.65440000     15.22930000     16.06170000
H      26.75900000     17.07400000     16.19600000
H      28.56000000     18.63600000     14.36100000
H      27.85100000     16.37300000     18.19200000
H      26.79760000     18.96560000     14.46990000
H      27.37990000     17.38960000     13.83610000
H      29.02550000     17.55440000     18.87180000
H      27.25840000     17.97950000     18.71880000
