14
pbedef2svp=-307.04175302599
C      35.16100000     34.17400000     26.89600000
C      36.67100000     34.29600000     27.08900000
O      37.30500000     33.23300000     26.79500000
C      39.91900000     32.85400000     23.84000000
C      40.76000000     34.03600000     23.39400000
O      41.97500000     34.00800000     23.62400000
H      34.63100000     34.92600000     27.50000000
H      34.98910000     34.33030000     25.82080000
H      34.84230000     33.15910000     27.17590000
H      37.11890000     35.23360000     27.45010000
H      39.79500000     32.89900000     24.93200000
H      40.44000000     31.92400000     23.56800000
H      38.92460000     32.85400000     23.36960000
H      40.23850000     34.85270000     22.87340000
