15
pbedef2svp=-378.3858159442
N      40.64200000     33.91600000     16.11200000
C      42.34500000     34.26900000     14.43100000
C      41.94900000     34.07600000     15.84200000
O      42.82900000     34.00000000     16.73900000
N      41.00100000     29.87800000     11.93100000
C      41.09200000     30.80800000     12.85100000
O      41.82800000     31.80800000     12.68100000
H      39.96500000     33.93300000     15.37700000
H      42.96700000     33.40700000     14.14900000
H      42.95000000     35.18700000     14.38800000
H      40.35930000     33.78010000     17.06150000
H      41.55910000     34.36380000     13.66720000
H      40.44300000     29.06500000     12.10000000
H      41.48510000     29.97520000     11.06140000
H      40.50330000     30.59340000     13.75510000
