16
pbedef2svp=-271.20487238426 b3lypdef2svp=-271.3873343434 b3lypvdz=-271.5966615123
C      36.73100000     30.57000000     12.64500000
C      38.14800000     30.98100000     13.06900000
O      38.54400000     32.15000000     12.85600000
C      35.70800000     30.77600000     13.80600000
C      34.22800000     30.63000000     13.31900000
C      35.87400000     32.13800000     14.51200000
H      36.42300000     31.20600000     11.80200000
H      35.89000000     29.98800000     14.55100000
H      33.94700000     31.51600000     12.73100000
H      34.13500000     29.73000000     12.69300000
H      35.13000000     32.22700000     15.31700000
H      36.88600000     32.20900000     14.93800000
H      35.72500000     32.94900000     13.78400000
H      36.79070000     29.52500000     12.30690000
H      38.76560000     30.24910000     13.61020000
H      33.56150000     30.54100000     14.18960000
