9
pbedef2svp=-208.79564356767 b3lypdef2svp=-208.92540446709 b3lypvdz=-209.08867479125
N      24.79000000     32.02100000     13.61800000
C      25.14900000     31.60900000     14.98000000
C      23.50900000     32.22400000     13.29000000
O      22.54400000     31.94200000     14.03400000
H      25.50600000     32.15100000     12.93200000
H      24.28500000     31.20800000     15.53000000
H      25.54030000     32.51210000     15.47110000
H      25.97710000     30.88500000     14.97070000
H      23.29520000     32.61130000     12.28290000
