10
pbedef2svp=-155.6336796803 b3lypdef2svp=-155.74490210251 b3lypvdz=-155.8642822489
C      24.51700000     21.47000000     20.03000000
C      22.94500000     21.95100000     17.78500000
C      22.43700000     22.15700000     19.06500000
C      23.20400000     21.90700000     20.19200000
H      21.42600000     22.51800000     19.18200000
H      22.79100000     22.04900000     21.18000000
H      24.94470000     21.32210000     19.02740000
H      25.09870000     21.33630000     20.95400000
H      22.31860000     22.17170000     16.90810000
H      23.99130000     21.63010000     17.67380000
