5
pbedef2svp=-40.4132264125 b3lypdef2svp=-40.45004636881 b3lypvdz=-40.47859073335
C      25.71400000     20.10800000      6.07300000
H      25.90100000     19.16700000      5.53500000
H      25.87000000     20.95700000      5.39100000
H      26.34030000     20.19100000      6.97350000
H      24.70950000     20.12650000      6.52090000
