15
pbedef2svp=-287.2527880095 b3lypdef2svp=-287.66002558797 b3lypvdz=-287.66002558797
C      41.94900000     34.07600000     15.84200000
O      42.82900000     34.00000000     16.73900000
N      40.64200000     33.91600000     16.11200000
C      40.22600000     33.71600000     17.50900000
C      38.69300000     34.10600000     17.59500000
C      38.14600000     33.93200000     19.02700000
H      39.96500000     33.93300000     15.37700000
H      40.79400000     34.38800000     18.16900000
H      38.14400000     33.41300000     16.94100000
H      37.08200000     34.21100000     19.05000000
H      38.25700000     32.88200000     19.33700000
H      38.70900000     34.57900000     19.71600000
H      42.24370000     34.21960000     14.79200000
H      40.38750000     32.67470000     17.82470000
H      38.53620000     35.12310000     17.20650000
