15
pbedef2svp=-345.08504569769 b3lypdef2svp=-345.30296304663 b3lypvdz=-345.57652501686
C      25.34900000     26.87200000     23.64300000
C      25.74300000     25.58600000     22.92200000
O      25.32500000     24.48900000     23.37800000
C      26.07000000     27.02500000     24.96000000
C      27.55300000     27.35600000     24.69500000
C      28.26200000     27.57600000     26.02000000
O      29.18900000     26.84000000     26.33500000
H      25.55800000     27.73800000     22.99800000
H      25.61000000     27.84000000     25.53800000
H      25.99900000     26.08600000     25.52900000
H      28.02600000     26.52000000     24.15900000
H      27.62300000     28.26900000     24.08500000
H      24.26500000     26.76500000     23.79650000
H      26.34900000     25.67240000     22.00800000
H      27.86100000     28.41020000     26.61440000
