12
pbedef2svp=-339.15843163843 b3lypdef2svp=-339.36218599778 b3lypvdz=-339.63078865225
N      24.79000000     32.02100000     13.61800000
C      23.50900000     32.22400000     13.29000000
O      22.54400000     31.94200000     14.03400000
C      27.15100000     33.36200000     10.65000000
O      26.35000000     32.77800000     11.39500000
N      28.26000000     33.94300000     11.09600000
H      25.50600000     32.15100000     12.93200000
H      25.03460000     31.74030000     14.54610000
H      23.29520000     32.61130000     12.28290000
H      28.87600000     34.37900000     10.44000000
H      26.87370000     33.41610000      9.58690000
H      28.49810000     33.95820000     12.06710000
