8
pbedef2svp=-79.6368767517 b3lypdef2svp=-79.70209183038 b3lypvdz=-79.75972857671
C      41.65100000     32.52900000     29.92300000
C      40.87300000     33.80200000     30.25300000
H      41.23700000     32.10900000     28.99400000
H      42.70300000     32.80600000     29.76300000
H      40.05800000     33.53600000     30.94300000
H      41.61990000     31.74470000     30.69360000
H      40.44030000     34.25790000     29.35020000
H      41.51610000     34.54240000     30.75120000
