14
pbedef2svp=-361.13542484261 b3lypdef2svp=-361.35465210224 b3lypvdz=-361.64033012881
C      20.14200000     21.59000000     15.14900000
O      19.49900000     22.64500000     15.32100000
N      19.99300000     20.88400000     14.04900000
C      19.06500000     21.35200000     12.99900000
C      19.44200000     22.74500000     12.51000000
O      18.57100000     23.61000000     12.28900000
C      17.58600000     21.28200000     13.46100000
H      20.50600000     20.03400000     13.92400000
H      19.16200000     20.67100000     12.14100000
H      17.45300000     20.36800000     14.05800000
H      17.37700000     22.16200000     14.08700000
H      20.82360000     21.26920000     15.95060000
H      20.50640000     22.92780000     12.30130000
H      16.85880000     21.26470000     12.63590000
