14
pbedef2svp=-303.18234263695
C      27.60300000     14.42300000     20.65500000
N      27.47900000     13.73300000     19.53700000
N      31.69700000     18.31100000     20.40600000
C      31.56800000     16.96200000     19.82500000
C      30.32000000     16.69800000     19.05100000
O      30.19800000     15.65700000     18.36600000
H      28.09800000     12.94800000     19.51000000
H      27.07040000     15.35420000     20.89840000
H      28.34420000     14.05400000     21.37920000
H      31.43900000     18.43200000     21.36400000
H      32.42200000     16.80400000     19.15000000
H      31.61200000     16.23500000     20.64900000
H      32.02520000     19.11280000     19.90650000
H      29.50830000     17.44010000     19.07170000
