14
pbedef2svp=-361.11594587323 b3lypdef2svp=-361.33456762766 b3lypvdz=-361.62039970647
C      38.81700000     28.02000000     19.88900000
C      38.42100000     28.04800000     21.34100000
O      37.21300000     28.03600000     21.70400000
C      41.03500000     27.90900000     18.87900000
C      40.16800000     30.02600000     19.91800000
O      39.26400000     30.66200000     20.52100000
N      40.05900000     28.75800000     19.60700000
H      38.00200000     28.46900000     19.30300000
H      41.73000000     27.40700000     19.56800000
H      41.60700000     28.49000000     18.14100000
H      39.01380000     27.01710000     19.48230000
H      39.22070000     28.08320000     22.09540000
H      40.35580000     27.19270000     18.39360000
H      41.10530000     30.55160000     19.68310000
