9
pbedef2svp=-208.75261051973 b3lypdef2svp=-208.88521373423 b3lypvdz=-209.04926819412
C      34.73800000     30.87500000     21.47300000
C      33.58900000     30.18900000     22.18100000
O      33.58000000     29.00900000     22.49900000
N      36.00000000     30.86000000     22.17200000
H      34.44500000     31.92400000     21.31900000
H      36.65600000     30.13900000     21.94800000
H      34.83590000     30.42250000     20.47520000
H      32.67090000     30.79060000     22.25370000
H      36.25420000     31.53120000     22.86830000
