22
pbedef2svp=-328.85554104386
C      32.63100000     29.44400000      9.06000000
C      31.94500000     29.44900000     10.43600000
C      35.70800000     30.77600000     13.80600000
C      34.22800000     30.63000000     13.31900000
N      34.73400000     25.82200000     14.94900000
C      34.44100000     26.09900000     13.68400000
O      34.88300000     27.09000000     13.09300000
H      33.02000000     28.42800000      8.89700000
H      32.69500000     29.27400000     11.22100000
H      31.46200000     30.42300000     10.60100000
H      31.18600000     28.65300000     10.47000000
H      31.84380000     29.62220000      8.31260000
H      33.48990000     30.13090000      9.03820000
H      35.89000000     29.98800000     14.55100000
H      33.94700000     31.51600000     12.73100000
H      34.13500000     29.73000000     12.69300000
H      36.42890000     30.63080000     12.98790000
H      35.82630000     31.74690000     14.30930000
H      33.56150000     30.54100000     14.18960000
H      34.36300000     24.99500000     15.37200000
H      35.32050000     26.42960000     15.48450000
H      33.78620000     25.37640000     13.17490000
