6
pbedef2svp=-438.30522181201 b3lypdef2svp=-438.46371728734 b3lypvdz=-438.62078586581
C      25.35300000     24.86000000      5.13400000
S      23.93000000     23.95900000      5.90400000
H      26.29500000     24.33800000      5.35600000
H      25.40300000     25.88800000      5.52200000
H      25.17680000     24.87460000      4.04830000
H      24.31650000     23.97770000      7.18690000
