14
pbedef2svp=-303.25887664113 b3lypdef2svp=-303.44740823214 b3lypvdz=-303.68314519806
N      41.18900000     32.08500000     19.03100000
C      41.46100000     30.75100000     19.59400000
C      40.16800000     30.02600000     19.91800000
O      39.26400000     30.66200000     20.52100000
C      42.19500000     31.14200000     20.91300000
N      40.05900000     28.75800000     19.60700000
H      42.11200000     30.14800000     18.94400000
H      41.47600000     31.30900000     21.72900000
H      42.91200000     30.36200000     21.21000000
H      40.63190000     32.23030000     18.21340000
H      41.61300000     32.82380000     19.55480000
H      42.71490000     32.07470000     20.64900000
H      39.21520000     28.25660000     19.79860000
H      40.71650000     28.18600000     19.11660000
