6
pbedef2svp=-169.5736096125 b3lypdef2svp=-169.67631766803 b3lypvdz=-169.81029742481
C      30.45900000     40.66600000     12.13000000
O      30.25300000     39.99100000     13.13300000
N      30.16300000     40.33800000     10.88600000
H      30.35300000     40.96100000     10.12800000
H      30.98010000     41.62410000     12.27310000
H      29.74210000     39.44470000     10.72810000
