12
pbedef2svp=-248.02984418946 b3lypdef2svp=-248.18869983668 b3lypvdz=-248.38084091133
C      21.46000000     18.73700000     16.16300000
O      20.49700000     18.50600000     16.90000000
N      21.84600000     19.95400000     15.90500000
C      21.07900000     21.14900000     16.25100000
C      22.41800000     17.63800000     15.69300000
H      22.72300000     20.07900000     15.44100000
H      20.48400000     20.94600000     17.15300000
H      21.81600000     16.72700000     15.56300000
H      20.39740000     21.46980000     15.44940000
H      21.80210000     21.94330000     16.48820000
H      22.84630000     17.88950000     14.71150000
H      23.17780000     17.41440000     16.45640000
