16
pbedef2svp=-362.31895162506
C      24.24100000     20.43600000     12.85700000
O      23.26400000     20.95100000     13.32900000
C      19.06500000     21.35200000     12.99900000
C      19.44200000     22.74500000     12.51000000
O      18.57100000     23.61000000     12.28900000
N      20.71700000     22.96400000     12.26000000
C      21.18400000     24.26300000     11.69000000
H      25.21610000     20.92100000     13.01190000
H      24.24020000     19.45520000     12.35890000
H      19.16200000     20.67100000     12.14100000
H      21.38500000     22.24600000     12.45600000
H      20.53700000     25.08800000     12.02200000
H      19.75590000     21.00360000     13.78080000
H      18.01610000     21.30240000     13.32660000
H      21.13070000     24.15350000     10.59680000
H      22.21520000     24.44100000     12.02900000
