10
pbedef2svp=-283.86303050931 b3lypdef2svp=-284.0372579418 b3lypvdz=-284.26417307312
C      28.37500000     17.99900000     16.88700000
O      29.32600000     18.78600000     16.69000000
N      31.11300000     20.86300000     15.86000000
C      31.59300000     20.55300000     14.65500000
O      32.15900000     21.31100000     13.86100000
H      28.18190000     17.59410000     17.89140000
H      27.64840000     17.73860000     16.10330000
H      30.62600000     20.16900000     16.39000000
H      31.23290000     21.77950000     16.24150000
H      31.45430000     19.49380000     14.39250000
