13
pbedef2svp=-174.04755206421
C      23.81200000     34.03100000      5.67700000
C      24.14700000     33.96600000      7.03800000
N      22.09900000     29.16300000      5.60500000
C      21.90700000     30.56300000      5.88100000
H      22.94800000     33.51100000      5.29000000
H      23.51900000     33.41800000      7.72500000
H      24.45850000     34.62870000      5.01770000
H      25.05090000     34.47540000      7.40320000
H      23.03200000     28.85400000      5.42200000
H      22.89500000     31.02900000      5.75500000
H      21.37400000     28.47460000      5.58190000
H      21.58370000     30.84890000      6.89280000
H      21.28200000     31.02960000      5.10540000
