18
pbedef2svp=-235.27154674738 b3lypdef2svp=-235.44654579596 b3lypvdz=-235.62345906876
C      30.09100000     34.39300000      5.07800000
C      29.42000000     35.75600000      5.11900000
C      26.13600000     35.34600000      6.64000000
C      23.81200000     34.03100000      5.67700000
C      25.28800000     34.60900000      7.49900000
C      24.14700000     33.96600000      7.03800000
H      29.47000000     33.64700000      4.56000000
H      29.15200000     36.06400000      4.09800000
H      28.51000000     35.69800000      5.73500000
H      30.11200000     36.49200000      5.55400000
H      30.37980000     34.03800000      6.07830000
H      31.09520000     34.48230000      4.63800000
H      27.00600000     35.85800000      7.02300000
H      22.94800000     33.51100000      5.29000000
H      23.51900000     33.41800000      7.72500000
H      25.88200000     35.38180000      5.57030000
H      24.45850000     34.62870000      5.01770000
H      25.58500000     34.52800000      8.55500000
