7
pbedef2svp=-153.52458652292 b3lypdef2svp=-153.62468887676 b3lypvdz=-153.74639436244
C      31.36300000     28.41000000      1.96200000
C      31.67100000     28.29100000      0.49800000
O      30.86900000     28.62100000     -0.36600000
H      30.27100000     28.49200000      2.06200000
H      31.83500000     29.33600000      2.32200000
H      31.69230000     27.59520000      2.62350000
H      32.68700000     27.91570000      0.30600000
