9
pbedef2svp=-208.80919659712 b3lypdef2svp=-208.94036496632 b3lypvdz=-209.10349850486
N      27.94200000     22.44800000     21.64800000
C      26.82600000     24.52100000     21.01200000
C      27.99400000     23.78100000     21.64300000
O      28.90400000     24.44400000     22.09800000
H      27.17100000     21.98000000     21.21600000
H      25.96700000     23.83400000     21.00400000
H      28.66760000     21.91310000     22.08080000
H      26.55630000     25.39350000     21.62530000
H      26.98190000     24.85930000     19.97700000
