8
pbedef2svp=-79.63954609687 b3lypdef2svp=-79.70481463829 b3lypvdz=-79.76247965938
C      19.63400000     23.88500000     21.53100000
C      18.79100000     24.22100000     20.31300000
H      20.63700000     23.57900000     21.19900000
H      19.16000000     23.05700000     22.07800000
H      19.25900000     25.03600000     19.74100000
H      18.68500000     23.33500000     19.66900000
H      19.72700000     24.75130000     22.20250000
H      17.80630000     24.53730000     20.68760000
