11
pbedef2svp=-209.92073442418 b3lypdef2svp=-210.06112478308 b3lypvdz=-210.22585848083
N      33.54800000     21.52600000     16.95000000
C      35.03100000     21.72200000     17.06900000
C      32.12800000     19.36400000     19.75000000
O      32.54600000     19.31700000     18.55800000
H      33.14600000     20.63400000     17.15600000
H      35.24600000     22.46200000     17.85400000
H      32.95960000     22.28290000     16.66570000
H      35.45680000     22.06320000     16.11390000
H      35.48830000     20.75920000     17.34080000
H      32.22500000     20.30980000     20.30330000
H      31.76700000     18.48210000     20.29940000
