10
pbedef2svp=-283.86209535868 b3lypdef2svp=-284.03764523213 b3lypvdz=-284.26386507124
O      23.57900000     31.32100000      9.55400000
C      22.50400000     31.22800000     10.13600000
N      26.21400000     32.09700000      8.77100000
C      26.88200000     31.42800000      7.86200000
O      27.90600000     31.71100000      7.26400000
H      21.73270000     30.53490000      9.76920000
H      22.28250000     31.77120000     11.06650000
H      25.36900000     31.73600000      9.16600000
H      26.58310000     32.98270000      9.05280000
H      26.42530000     30.46100000      7.60440000
