23
pbedef2svp=-312.7984774723 b3lypdef2svp=-313.02614053388 b3lypvdz=-313.26344263338
C      30.84700000     30.93100000     24.11800000
C      29.41200000     30.79600000     24.59800000
C      25.64600000     31.67000000     22.42100000
C      25.77800000     30.43600000     23.35600000
C      25.34900000     26.87200000     23.64300000
C      25.74300000     25.58600000     22.92200000
O      25.32500000     24.48900000     23.37800000
H      31.49100000     30.45600000     24.87200000
H      31.07600000     32.00600000     24.06500000
H      28.75300000     31.37500000     23.93500000
H      29.12000000     29.73600000     24.57000000
H      31.10430000     30.49220000     23.14270000
H      29.30970000     31.17180000     25.62670000
H      26.63000000     31.89000000     21.98200000
H      25.30900000     32.53200000     23.01600000
H      26.50600000     30.65400000     24.15100000
H      24.80000000     30.21100000     23.80600000
H      26.12100000     29.56900000     22.77200000
H      24.92520000     31.49540000     21.60860000
H      25.55800000     27.73800000     22.99800000
H      24.26500000     26.76500000     23.79650000
H      25.87450000     26.98350000     24.60290000
H      26.34900000     25.67240000     22.00800000
