8
pbedef2svp=-79.63679986241 b3lypdef2svp=-79.7019093488 b3lypvdz=-79.75956357131
C      35.03100000     21.72200000     17.06900000
C      35.66700000     20.38300000     17.44700000
H      35.24600000     22.46200000     17.85400000
H      35.07400000     19.98200000     18.28200000
H      35.55700000     19.72700000     16.57100000
H      33.94390000     21.57830000     16.98180000
H      35.45680000     22.06320000     16.11390000
H      36.72140000     20.31800000     17.75370000
