13
pbedef2svp=-377.19525065104 b3lypdef2svp=-377.41804886266 b3lypvdz=-377.71607377035
C      40.67500000     35.52700000     13.20000000
O      40.81400000     36.52800000     13.91100000
N      41.31700000     34.39300000     13.43200000
C      42.34500000     34.26900000     14.43100000
C      41.94900000     34.07600000     15.84200000
O      42.82900000     34.00000000     16.73900000
N      40.64200000     33.91600000     16.11200000
H      41.07700000     33.58800000     12.89000000
H      42.96700000     33.40700000     14.14900000
H      42.95000000     35.18700000     14.38800000
H      39.96500000     33.93300000     15.37700000
H      39.94580000     35.54160000     12.37660000
H      40.35930000     33.78010000     17.06150000
