11
pbedef2svp=-209.92249856031
C      36.33400000     31.74200000     23.08700000
O      35.57400000     32.61800000     23.48300000
C      35.61200000     30.57700000     28.04400000
N      35.04000000     30.25200000     26.73000000
H      37.33660000     31.66700000     23.53330000
H      36.05440000     31.00370000     22.32100000
H      36.60000000     30.10400000     28.14300000
H      34.94700000     30.20600000     28.83800000
H      35.16400000     30.85000000     25.93800000
H      35.71550000     31.66880000     28.12970000
H      34.51960000     29.40020000     26.67070000
