23
pbedef2svp=-312.79130781033
C      28.40700000     22.94800000     16.36600000
C      29.00600000     22.04300000     17.44200000
C      29.94200000     21.10600000     21.24000000
O      29.47000000     20.67700000     20.19000000
C      26.92600000     18.19100000     18.89200000
C      26.62100000     17.79900000     20.35200000
C      28.10800000     17.43900000     18.27600000
H      27.34900000     22.68900000     16.21600000
H      28.48600000     23.99800000     16.68500000
H      28.95600000     22.80900000     15.42300000
H      28.90200000     21.00100000     17.10700000
H      28.43100000     22.19000000     18.36800000
H      30.06740000     22.22320000     17.66770000
H      29.26390000     21.50910000     22.00660000
H      31.02640000     21.09260000     21.42400000
H      27.14900000     19.26800000     18.86300000
H      26.03200000     17.98500000     18.28500000
H      27.54500000     17.79200000     20.94900000
H      25.90200000     18.50300000     20.79700000
H      27.85100000     16.37300000     18.19200000
H      26.18900000     16.78870000     20.30110000
H      29.02550000     17.55440000     18.87180000
H      28.30110000     17.84390000     17.27160000
