16
pbedef2svp=-271.1522351224
C      26.48200000     19.28000000     14.43200000
O      25.60900000     19.38800000     15.28700000
C      22.08500000     22.25400000     16.58100000
C      22.94500000     21.95100000     17.78500000
C      24.27200000     21.54400000     17.64400000
C      21.07900000     21.14900000     16.25100000
H      27.25840000     18.50640000     14.52510000
H      26.56800000     19.93400000     13.55170000
H      22.74300000     22.39600000     15.71100000
H      21.52900000     23.18300000     16.77600000
H      24.69800000     21.42900000     16.65800000
H      20.48400000     20.94600000     17.15300000
H      22.54370000     22.11370000     18.79620000
H      24.88530000     21.34030000     18.53410000
H      21.65630000     20.24960000     15.99060000
H      20.39740000     21.46980000     15.44940000
