7
pbedef2svp=-153.5218541445 b3lypdef2svp=-153.62157054739 b3lypvdz=-153.74333094755
O      29.93000000     16.47700000     10.60600000
C      28.05400000     16.83500000      9.21000000
C      29.25800000     17.31800000      9.98400000
H      27.36300000     16.33700000      9.90600000
H      27.53620000     17.67480000      8.72360000
H      28.39370000     16.09990000      8.46550000
H      29.53900000     18.37370000      9.85540000
