27
pbedef2svp=-278.14717694102
C      38.69300000     34.10600000     17.59500000
C      38.14600000     33.93200000     19.02700000
C      32.34500000     34.18300000     18.35800000
C      32.55500000     32.78300000     18.87000000
C      34.73800000     30.87500000     21.47300000
C      34.87600000     30.23700000     20.06600000
C      36.01200000     30.86000000     19.22100000
H      38.14400000     33.41300000     16.94100000
H      37.08200000     34.21100000     19.05000000
H      38.25700000     32.88200000     19.33700000
H      38.70900000     34.57900000     19.71600000
H      39.75750000     33.83520000     17.53530000
H      38.53620000     35.12310000     17.20650000
H      32.46000000     34.90800000     19.17700000
H      33.56400000     32.69700000     19.30000000
H      31.80600000     32.56000000     19.64400000
H      32.44800000     32.06900000     18.04000000
H      31.33610000     34.26900000     17.92820000
H      33.07160000     34.40330000     17.56200000
H      34.44500000     31.92400000     21.31900000
H      35.08000000     29.16300000     20.18800000
H      33.92600000     30.37100000     19.52700000
H      35.81700000     31.93400000     19.08500000
H      36.97000000     30.72500000     19.74400000
H      35.70020000     30.86360000     22.00590000
H      33.90320000     30.37660000     21.98740000
H      36.06390000     30.37270000     18.23620000
