17
pbedef2svp=-342.48774456242 b3lypdef2svp=-342.70465605307 b3lypvdz=-342.96881864411
N      39.65500000     34.33500000     11.28500000
C      39.67600000     35.54700000     12.07200000
N      40.11700000     31.75000000      9.98800000
C      39.80800000     32.99400000      9.23300000
C      39.83700000     34.27100000      9.99500000
O      40.16400000     35.32300000      9.34500000
C      38.61500000     32.80100000      8.32000000
H      39.48700000     33.47600000     11.76900000
H      39.91600000     36.39600000     11.41500000
H      39.41000000     31.24600000     10.48500000
H      40.65200000     33.09000000      8.53400000
H      38.67800000     33.59500000      7.56100000
H      38.75200000     31.82100000      7.83900000
H      40.40520000     35.53240000     12.89540000
H      38.68860000     35.73720000     12.51800000
H      41.06890000     31.44410000      9.97240000
H      37.58130000     32.81660000      8.69570000
