16
pbedef2svp=-362.30578266089
C      30.21000000     30.50900000     21.65000000
O      29.97800000     31.72600000     21.26900000
N      30.12400000     34.53300000     21.19100000
C      30.47900000     35.36900000     22.37400000
C      29.80100000     34.14500000     18.82900000
C      30.05200000     35.04200000     20.00400000
O      30.10500000     36.30500000     19.78800000
H      30.92970000     30.37810000     22.47150000
H      29.78370000     29.62250000     21.15760000
H      29.93800000     33.55900000     21.31800000
H      30.50500000     36.43000000     22.08400000
H      29.80100000     33.10000000     19.17200000
H      31.49760000     35.04020000     22.62760000
H      29.75060000     35.23300000     23.18700000
H      28.83900000     34.37270000     18.34650000
H      30.59150000     34.25680000     18.07230000
