11
pbedef2svp=-321.89402117141 b3lypdef2svp=-322.08552646113 b3lypvdz=-322.34262425671
N      32.47800000     30.91700000     22.26900000
C      31.20000000     30.32900000     22.78000000
C      30.21000000     30.50900000     21.65000000
O      29.97800000     31.72600000     21.26900000
C      33.58900000     30.18900000     22.18100000
O      33.58000000     29.00900000     22.49900000
H      32.49800000     31.87600000     21.98800000
H      31.35500000     29.25000000     22.92500000
H      30.94270000     30.76780000     23.75530000
H      29.78370000     29.62250000     21.15760000
H      34.42380000     30.68740000     21.66660000
