9
pbedef2svp=-208.75056840101 b3lypdef2svp=-208.88198432858 b3lypvdz=-209.0468104491
C      39.07600000     34.93100000     29.03100000
O      38.29700000     34.94600000     29.99600000
N      37.19700000     35.39700000     27.51300000
C      38.66800000     35.50200000     27.68000000
H      36.61300000     36.17900000     27.72900000
H      39.13700000     34.87600000     26.90700000
H      40.08790000     34.49980000     29.04260000
H      36.78980000     34.54470000     27.18480000
H      38.96580000     36.54220000     27.48190000
