17
pbedef2svp=-288.45095529995
C      34.87600000     30.23700000     20.06600000
C      36.01200000     30.86000000     19.22100000
C      38.81700000     28.02000000     19.88900000
C      38.42100000     28.04800000     21.34100000
O      37.21300000     28.03600000     21.70400000
N      39.37400000     28.09000000     22.24000000
H      35.08000000     29.16300000     20.18800000
H      33.92600000     30.37100000     19.52700000
H      35.81700000     31.93400000     19.08500000
H      36.97000000     30.72500000     19.74400000
H      34.77810000     30.68950000     21.06380000
H      36.06390000     30.37270000     18.23620000
H      38.00200000     28.46900000     19.30300000
H      40.32700000     28.14100000     21.94300000
H      39.74510000     28.57150000     19.67830000
H      39.01380000     27.01710000     19.48230000
H      39.16500000     28.07190000     23.21770000
