7
pbedef2svp=-95.63997100833 b3lypdef2svp=-95.70938941873 b3lypvdz=-95.78064745503
N      31.69700000     18.31100000     20.40600000
C      31.56800000     16.96200000     19.82500000
H      31.43900000     18.43200000     21.36400000
H      32.42200000     16.80400000     19.15000000
H      31.61200000     16.23500000     20.64900000
H      32.02520000     19.11280000     19.90650000
H      30.64790000     16.76740000     19.25440000
