13
pbedef2svp=-377.18341199684 b3lypdef2svp=-377.4067880917 b3lypvdz=-377.70485195138
C      34.23900000     35.35300000     24.97900000
O      33.70700000     36.19700000     25.72800000
N      34.93000000     34.38400000     25.45100000
C      35.16100000     34.17400000     26.89600000
C      36.67100000     34.29600000     27.08900000
O      37.30500000     33.23300000     26.79500000
N      37.19700000     35.39700000     27.51300000
H      35.33500000     33.73400000     24.80800000
H      34.63100000     34.92600000     27.50000000
H      36.61300000     36.17900000     27.72900000
H      34.17030000     35.43990000     23.88460000
H      34.84230000     33.15910000     27.17590000
H      38.18810000     35.46770000     27.62550000
