6
pbedef2svp=-169.57384728163 b3lypdef2svp=-169.67702405043 b3lypvdz=-169.81085278398
N      24.24000000     19.23300000     12.24600000
C      24.24100000     20.43600000     12.85700000
O      23.26400000     20.95100000     13.32900000
H      25.09100000     18.79700000     11.95400000
H      23.35340000     18.79510000     12.09710000
H      25.21610000     20.92100000     13.01190000
