15
pbedef2svp=-233.16418464715 b3lypdef2svp=-233.32801075591 b3lypvdz=-233.50800196714
C      25.11200000     24.88000000      3.64900000
C      25.35300000     24.86000000      5.13400000
C      29.27900000     23.22700000      5.64100000
O      28.47800000     23.52200000      4.72500000
C      30.28800000     24.24500000      6.19300000
H      24.23300000     25.51000000      3.45100000
H      24.90700000     23.85100000      3.31900000
H      26.29500000     24.33800000      5.35600000
H      25.40300000     25.88800000      5.52200000
H      25.95510000     25.26940000      3.05940000
H      24.50780000     24.32480000      5.59140000
H      31.28700000     23.78400000      6.19600000
H      29.36350000     22.24810000      6.13550000
H      30.30460000     25.16000000      5.58270000
H      30.01650000     24.48820000      7.23090000
