12
pbedef2svp=-156.8685161352 b3lypdef2svp=-156.98507952464 b3lypvdz=-157.10289691371
C      22.08500000     22.25400000     16.58100000
C      22.94500000     21.95100000     17.78500000
C      24.27200000     21.54400000     17.64400000
C      21.07900000     21.14900000     16.25100000
H      22.74300000     22.39600000     15.71100000
H      21.52900000     23.18300000     16.77600000
H      24.69800000     21.42900000     16.65800000
H      20.48400000     20.94600000     17.15300000
H      22.54370000     22.11370000     18.79620000
H      24.88530000     21.34030000     18.53410000
H      21.65630000     20.24960000     15.99060000
H      20.39740000     21.46980000     15.44940000
