9
pbedef2svp=-208.79453709985 b3lypdef2svp=-208.92561329401 b3lypvdz=-209.08850480493
O      28.44900000     20.67400000      8.36000000
C      25.82900000     19.82500000      8.49400000
N      26.55900000     20.22000000      7.28800000
C      27.81900000     20.60900000      7.31600000
H      25.66900000     20.69300000      9.15000000
H      26.34830000     19.02780000      9.04610000
H      24.86060000     19.47400000      8.10810000
H      25.98970000     20.14450000      6.46940000
H      28.28810000     20.84830000      6.35030000
