6
pbedef2svp=-169.57166506717 b3lypdef2svp=-169.67378632346 b3lypvdz=-169.80819293823
C      29.60400000     43.50700000     13.39300000
O      29.21900000     43.98100000     12.30100000
N      30.56300000     42.62300000     13.49500000
H      30.87700000     42.35700000     14.40600000
H      29.14480000     43.83930000     14.33570000
H      30.99400000     42.20360000     12.69610000
