12
pbedef2svp=-248.03234613318 b3lypdef2svp=-248.1904313546 b3lypvdz=-248.3832703731
C      35.03100000     21.72200000     17.06900000
C      35.61500000     22.19000000     15.75900000
O      36.53200000     23.04600000     15.72400000
C      35.66700000     20.38300000     17.44700000
N      35.13900000     21.62400000     14.66200000
H      35.24600000     22.46200000     17.85400000
H      35.07400000     19.98200000     18.28200000
H      35.55700000     19.72700000     16.57100000
H      34.42500000     20.93200000     14.76600000
H      33.94390000     21.57830000     16.98180000
H      36.72140000     20.31800000     17.75370000
H      35.44610000     21.84260000     13.73580000
