13
pbedef2svp=-377.19283510072 b3lypdef2svp=-377.41764286665 b3lypvdz=-377.71478906545
C      27.99400000     23.78100000     21.64300000
O      28.90400000     24.44400000     22.09800000
N      27.94200000     22.44800000     21.64800000
C      29.01500000     21.65700000     22.28800000
C      29.94200000     21.10600000     21.24000000
O      29.47000000     20.67700000     20.19000000
N      31.23300000     21.09000000     21.45900000
H      27.17100000     21.98000000     21.21600000
H      29.58400000     22.29400000     22.98200000
H      31.54300000     21.39500000     22.36000000
H      27.14870000     24.31660000     21.18630000
H      28.53100000     20.84640000     22.85260000
H      31.93830000     20.80210000     20.81120000
