11
pbedef2svp=-118.86061734671 b3lypdef2svp=-118.95375261557 b3lypvdz=-119.04067205704
C      19.76200000     25.07700000     22.45500000
C      19.63400000     23.88500000     21.53100000
C      18.79100000     24.22100000     20.31300000
H      19.49400000     24.79200000     23.48300000
H      19.10600000     25.89300000     22.11700000
H      20.63700000     23.57900000     21.19900000
H      19.16000000     23.05700000     22.07800000
H      19.25900000     25.03600000     19.74100000
H      18.68500000     23.33500000     19.66900000
H      20.81510000     25.39150000     22.40950000
H      17.80630000     24.53730000     20.68760000
