7
pbedef2svp=-153.52256468522 b3lypdef2svp=-153.62217340509 b3lypvdz=-153.74394429311
C      29.60700000     41.18000000     19.46700000
C      30.07500000     42.53800000     18.98400000
O      29.58600000     43.57000000     19.48300000
H      28.51100000     41.16800000     19.37000000
H      29.99720000     40.35430000     18.85380000
H      29.83110000     40.97170000     20.52360000
H      30.82350000     42.56500000     18.17830000
