15
pbedef2svp=-175.28012034939
N      26.58500000     20.06300000     13.37800000
C      25.59400000     21.10900000     13.07200000
C      24.12300000     24.98100000     14.19500000
C      22.66200000     24.81900000     13.69900000
H      27.36400000     19.94300000     12.76300000
H      25.51600000     21.80500000     13.92000000
H      26.50680000     19.46850000     14.17830000
H      24.61890000     20.62400000     12.91710000
H      25.94320000     21.66420000     12.18890000
H      24.12300000     25.19500000     15.27400000
H      24.68000000     24.05100000     14.00600000
H      24.60300000     25.81200000     13.65700000
H      22.10700000     25.74900000     13.89000000
H      22.18400000     23.98900000     14.23900000
H      22.65350000     24.60490000     12.62010000
