16
pbedef2svp=-362.33261570165 b3lypdef2svp=-362.56274086834 b3lypvdz=-362.8478163626
N      26.58500000     20.06300000     13.37800000
C      26.48200000     19.28000000     14.43200000
O      25.60900000     19.38800000     15.28700000
C      30.79600000     19.08300000     10.56600000
C      30.49100000     19.16200000     12.04000000
O      29.36700000     19.52300000     12.44100000
C      31.15500000     20.51500000     10.04800000
H      27.36400000     19.94300000     12.76300000
H      25.91220000     20.77310000     13.17030000
H      27.25840000     18.50640000     14.52510000
H      31.64900000     18.41000000     10.39300000
H      30.22700000     21.08200000      9.88300000
H      31.76900000     21.02800000     10.80200000
H      29.91060000     18.72500000     10.02010000
H      31.33860000     18.97400000     12.71540000
H      31.71600000     20.45730000      9.10360000
