10
pbedef2svp=-134.86362875243 b3lypdef2svp=-134.96097494643 b3lypvdz=-135.06159457456
C      40.34000000     27.69200000     24.46800000
N      39.37400000     28.09000000     22.24000000
C      39.06300000     28.06300000     23.69500000
H      40.25700000     26.64900000     24.80900000
H      41.20300000     27.79000000     23.79400000
H      40.32700000     28.14100000     21.94300000
H      38.35200000     27.23900000     23.85600000
H      40.49880000     28.33940000     25.34300000
H      38.64700000     28.05800000     21.55420000
H      38.55900000     28.98150000     24.03010000
