20
pbedef2svp=-273.56109674209
C      26.91300000     26.63900000      3.53100000
O      27.88600000     26.46300000      4.26300000
C      26.34400000     29.05000000      8.64500000
C      27.81000000     28.74800000      8.99900000
C      29.90300000     24.59000000      7.66500000
C      28.47600000     25.13500000      7.70500000
H      26.45330000     25.76780000      3.04140000
H      26.42360000     27.59660000      3.29980000
H      25.87900000     29.50700000      9.53100000
H      28.22100000     28.06200000      8.24300000
H      28.37700000     29.69100000      8.98500000
H      26.26570000     29.77390000      7.82050000
H      25.74960000     28.15870000      8.39550000
H      27.91980000     28.28560000      9.99100000
H      29.89100000     23.63600000      8.21200000
H      28.20500000     25.37800000      8.74300000
H      28.41300000     26.04300000      7.08700000
H      27.78300000     24.37600000      7.31300000
H      30.17450000     24.34680000      6.62710000
H      30.60400000     25.25220000      8.19420000
