21
pbedef2svp=-348.6510398621
C      27.57400000     18.19200000     14.56300000
C      27.29900000     17.05500000     13.53300000
C      23.05900000     17.32600000     11.15400000
O      23.91400000     16.39500000     11.75500000
C      26.54100000     18.73200000      9.25100000
O      26.33300000     18.53600000     10.45700000
C      25.82900000     19.82500000      8.49400000
H      28.56000000     18.63600000     14.36100000
H      27.28300000     17.48700000     12.52200000
H      27.52640000     17.81830000     15.59650000
H      26.79760000     18.96560000     14.46990000
H      26.28680000     16.72790000     13.81300000
H      27.97910000     16.19060000     13.55110000
H      22.06600000     16.87100000     11.02100000
H      23.46700000     17.60900000     10.17200000
H      23.98400000     15.62600000     11.20200000
H      22.96230000     18.22670000     11.77810000
H      25.66900000     20.69300000      9.15000000
H      27.22310000     18.08900000      8.67540000
H      26.37750000     20.12180000      7.58790000
H      24.86060000     19.47400000      8.10810000
