19
pbedef2svp=-252.55299318184 b3lypdef2svp=-252.73337111218 b3lypvdz=-252.92318152853
C      21.55000000     26.79600000     23.13300000
C      21.24200000     25.51900000     22.39100000
C      19.76200000     25.07700000     22.45500000
C      19.63400000     23.88500000     21.53100000
C      18.79100000     24.22100000     20.31300000
N      17.44000000     24.65500000     20.82700000
H      21.34400000     26.67500000     24.20700000
H      21.51100000     25.66300000     21.33400000
H      21.85900000     24.71600000     22.82000000
H      19.49400000     24.79200000     23.48300000
H      19.10600000     25.89300000     22.11700000
H      20.63700000     23.57900000     21.19900000
H      19.16000000     23.05700000     22.07800000
H      19.25900000     25.03600000     19.74100000
H      18.68500000     23.33500000     19.66900000
H      16.84800000     24.88700000     20.05500000
H      17.02800000     23.91000000     21.35100000
H      20.98910000     27.64600000     22.71730000
H      22.61870000     27.00390000     22.97580000
