13
pbedef2svp=-323.10060856736 b3lypdef2svp=-323.30222978904 b3lypvdz=-323.55839012767
C      30.47900000     35.36900000     22.37400000
C      31.90100000     34.91000000     22.72800000
O      32.19000000     33.69600000     22.63500000
N      32.47800000     30.91700000     22.26900000
C      33.58900000     30.18900000     22.18100000
O      33.58000000     29.00900000     22.49900000
H      30.50500000     36.43000000     22.08400000
H      30.21720000     34.75240000     21.50150000
H      29.75060000     35.23300000     23.18700000
H      32.62350000     35.68200000     23.03140000
H      32.49800000     31.87600000     21.98800000
H      31.62410000     30.52410000     22.61040000
H      34.42380000     30.68740000     21.66660000
