7
pbedef2svp=-95.63624494469 b3lypdef2svp=-95.70574450477 b3lypvdz=-95.77721651838
N      23.88000000     26.72700000     23.85100000
C      25.34900000     26.87200000     23.64300000
H      23.53200000     26.35300000     24.71100000
H      25.55800000     27.73800000     22.99800000
H      23.24130000     27.00270000     23.13260000
H      25.63300000     25.94500000     23.12330000
H      25.87450000     26.98350000     24.60290000
