15
pbedef2svp=-287.26158968125 b3lypdef2svp=-287.44811649831 b3lypvdz=-287.66951989563
C      31.22000000     27.34100000      4.27500000
C      31.44000000     26.07900000      5.08000000
O      32.57600000     25.80200000      5.46100000
C      31.82700000     27.26200000      2.89400000
C      31.36300000     28.41000000      1.96200000
N      30.31000000     25.45800000      5.38400000
H      30.13900000     27.52500000      4.18300000
H      32.92200000     27.30900000      2.98900000
H      31.53900000     26.30300000      2.43900000
H      30.27100000     28.49200000      2.06200000
H      31.83500000     29.33600000      2.32200000
H      29.44600000     25.83300000      5.04800000
H      31.67060000     28.12700000      4.89880000
H      31.58880000     28.32280000      0.88900000
H      30.29490000     24.62620000      5.93880000
