18
pbedef2svp=-363.43504891265
C      36.97500000     26.82600000     15.10700000
O      37.57900000     27.92600000     15.15900000
C      36.08300000     30.19400000     17.87500000
O      35.04800000     29.70200000     17.39300000
N      36.81100000     29.17000000     12.19200000
C      36.73100000     30.57000000     12.64500000
C      35.70800000     30.77600000     13.80600000
H      35.97690000     26.74570000     15.56230000
H      37.41260000     25.92150000     14.65940000
H      36.03110000     30.68130000     18.85980000
H      37.04120000     30.13710000     17.33770000
H      36.39600000     28.44100000     12.73600000
H      36.42300000     31.20600000     11.80200000
H      35.89000000     29.98800000     14.55100000
H      37.28330000     28.95410000     11.33740000
H      37.74640000     30.86450000     12.94880000
H      34.66770000     30.67340000     13.46370000
H      35.82630000     31.74690000     14.30930000
