14
pbedef2svp=-303.2603252289 b3lypdef2svp=-303.45097248827 b3lypvdz=-303.68551827932
N      32.47800000     30.91700000     22.26900000
C      31.20000000     30.32900000     22.78000000
N      36.00000000     30.86000000     22.17200000
C      34.73800000     30.87500000     21.47300000
C      33.58900000     30.18900000     22.18100000
O      33.58000000     29.00900000     22.49900000
H      32.49800000     31.87600000     21.98800000
H      31.35500000     29.25000000     22.92500000
H      36.65600000     30.13900000     21.94800000
H      34.44500000     31.92400000     21.31900000
H      30.48030000     30.45990000     21.95850000
H      30.94270000     30.76780000     23.75530000
H      36.25420000     31.53120000     22.86830000
H      34.83590000     30.42250000     20.47520000
