11
pbedef2svp=-321.90395435963 b3lypdef2svp=-322.09553930785 b3lypvdz=-322.35256622111
N      36.81100000     29.17000000     12.19200000
C      36.73100000     30.57000000     12.64500000
C      38.14800000     30.98100000     13.06900000
O      38.54400000     32.15000000     12.85600000
C      37.44100000     28.88200000     11.05200000
O      38.02000000     29.77200000     10.38200000
H      36.39600000     28.44100000     12.73600000
H      36.42300000     31.20600000     11.80200000
H      36.01010000     30.71520000     13.46310000
H      38.76560000     30.24910000     13.61020000
H      37.46240000     27.81700000     10.77770000
