17
pbedef2svp=-342.49370611321 b3lypdef2svp=-342.71045439055 b3lypvdz=-342.97509202168
N      26.46500000     25.68900000     21.83300000
N      23.88000000     26.72700000     23.85100000
C      25.34900000     26.87200000     23.64300000
C      25.74300000     25.58600000     22.92200000
O      25.32500000     24.48900000     23.37800000
C      26.07000000     27.02500000     24.96000000
C      27.55300000     27.35600000     24.69500000
H      26.78200000     26.59400000     21.54900000
H      23.53200000     26.35300000     24.71100000
H      25.55800000     27.73800000     22.99800000
H      25.61000000     27.84000000     25.53800000
H      25.99900000     26.08600000     25.52900000
H      28.02600000     26.52000000     24.15900000
H      27.62300000     28.26900000     24.08500000
H      26.71010000     24.89590000     21.27550000
H      23.24130000     27.00270000     23.13260000
H      28.06650000     27.51530000     25.65460000
