16
pbedef2svp=-213.31877040121 b3lypdef2svp=-213.47166348351 b3lypvdz=-213.63050485253
C      39.08000000     36.94100000     27.40600000
C      39.50200000     37.34000000     26.00200000
C      39.33700000     38.85400000     25.86200000
N      37.19700000     35.39700000     27.51300000
C      38.66800000     35.50200000     27.68000000
H      38.22400000     37.57700000     27.67600000
H      39.92700000     37.16400000     28.07100000
H      40.56300000     37.08500000     25.86300000
H      39.63800000     39.16400000     24.85000000
H      38.28400000     39.12500000     26.03100000
H      39.97000000     39.36200000     26.60500000
H      36.61300000     36.17900000     27.72900000
H      39.13700000     34.87600000     26.90700000
H      38.91040000     36.83880000     25.22170000
H      36.78980000     34.54470000     27.18480000
H      38.96280000     35.08940000     28.65620000
