15
pbedef2svp=-287.23852180988 b3lypdef2svp=-287.42455596714 b3lypvdz=-287.64598679773
C      31.67700000     30.27500000      6.63900000
C      31.02200000     29.28800000      5.66500000
O      29.80900000     29.39500000      5.54500000
C      31.56200000     29.68600000      8.04500000
N      31.83400000     28.41200000      5.12500000
C      31.22000000     27.34100000      4.27500000
H      32.72700000     30.46400000      6.36900000
H      30.84400000     30.34400000      8.55700000
H      31.10600000     28.69700000      7.88900000
H      32.82200000     28.45600000      5.27400000
H      30.13900000     27.52500000      4.18300000
H      31.07410000     31.19490000      6.65950000
H      32.34920000     29.50780000      8.79240000
H      31.38000000     26.42350000      4.86030000
H      31.66200000     27.28350000      3.26940000
