16
pbedef2svp=-362.3263302953 b3lypdef2svp=-362.55567250662 b3lypvdz=-362.84076319733
N      26.46500000     25.68900000     21.83300000
C      25.74300000     25.58600000     22.92200000
O      25.32500000     24.48900000     23.37800000
C      28.76200000     29.57300000     19.90600000
C      27.33100000     29.31700000     20.36400000
O      27.10100000     28.34600000     21.09700000
C      29.15100000     28.65500000     18.75500000
H      26.78200000     26.59400000     21.54900000
H      26.71010000     24.89590000     21.27550000
H      25.45900000     26.51300000     23.44170000
H      28.81600000     30.60900000     19.54100000
H      29.23500000     27.64100000     19.17300000
H      28.32300000     28.68600000     18.03100000
H      29.45240000     29.47150000     20.75640000
H      26.59060000     30.07400000     20.06620000
H      30.07520000     28.84280000     18.18880000
