16
pbedef2svp=-362.32715259608
C      31.40900000     32.68000000      6.44600000
O      32.61900000     32.81200000      6.12500000
N      30.88400000     31.48500000      6.66600000
C      26.23500000     30.05800000      7.49700000
C      26.88200000     31.42800000      7.86200000
O      27.90600000     31.71100000      7.26400000
C      26.34400000     29.05000000      8.64500000
H      29.90500000     31.41600000      6.85800000
H      30.74920000     33.55880000      6.49420000
H      31.43200000     30.64880000      6.64730000
H      25.16500000     30.24200000      7.32000000
H      25.87900000     29.50700000      9.53100000
H      26.69280000     29.75830000      6.54270000
H      26.32170000     31.98910000      8.62440000
H      27.39250000     28.83400000      8.89820000
H      25.74960000     28.15870000      8.39550000
