16
pbedef2svp=-362.30773952115 b3lypdef2svp=-362.53733515228 b3lypvdz=-362.82258398718
C      26.48200000     19.28000000     14.43200000
O      25.60900000     19.38800000     15.28700000
C      23.46100000     17.33100000     16.74100000
C      22.22900000     18.24400000     13.32500000
O      20.96300000     18.25300000     13.39500000
N      22.99700000     17.97800000     14.36600000
C      22.41800000     17.63800000     15.69300000
H      27.25840000     18.50640000     14.52510000
H      26.56800000     19.93400000     13.55170000
H      24.21600000     18.13000000     16.70200000
H      22.96200000     17.34600000     17.72100000
H      23.99100000     18.00600000     14.25900000
H      21.81600000     16.72700000     15.56300000
H      23.98920000     16.37030000     16.65190000
H      22.73440000     18.49050000     12.37960000
H      21.73010000     18.42720000     16.03050000
