15
pbedef2svp=-287.26084023112 b3lypdef2svp=-287.44769138394 b3lypvdz=-287.66899264346
C      33.53300000     25.09700000     12.97800000
C      34.44100000     26.09900000     13.68400000
O      34.88300000     27.09000000     13.09300000
C      32.06000000     25.25700000     13.36400000
N      34.73400000     25.82200000     14.94900000
C      35.59600000     26.71500000     15.73600000
H      33.61300000     25.28200000     11.89700000
H      31.94400000     24.89900000     14.39800000
H      34.36300000     24.99500000     15.37200000
H      35.14500000     27.71800000     15.76300000
H      33.89050000     24.07720000     13.18320000
H      31.79120000     26.32350000     13.34830000
H      31.40290000     24.65200000     12.72210000
H      36.59410000     26.79530000     15.28070000
H      35.68160000     26.34670000     16.76900000
