10
pbedef2svp=-134.86695087176 b3lypdef2svp=-134.96408838749 b3lypvdz=-135.06476107055
N      32.47800000     30.91700000     22.26900000
C      31.20000000     30.32900000     22.78000000
C      30.84700000     30.93100000     24.11800000
H      32.49800000     31.87600000     21.98800000
H      31.35500000     29.25000000     22.92500000
H      31.49100000     30.45600000     24.87200000
H      31.07600000     32.00600000     24.06500000
H      33.31260000     30.37010000     22.20290000
H      30.48030000     30.45990000     21.95850000
H      29.80790000     30.83320000     24.46560000
