14
pbedef2svp=-249.16494401663
N      29.69400000     29.43600000     21.05400000
C      28.76200000     29.57300000     19.90600000
C      26.17900000     34.12700000     17.65000000
C      27.47500000     33.65100000     18.30400000
O      27.50700000     32.58700000     18.95800000
H      29.93800000     28.52400000     21.38400000
H      28.81600000     30.60900000     19.54100000
H      30.08150000     30.24190000     21.50160000
H      27.72920000     29.38820000     20.23650000
H      29.04300000     28.90990000     19.07460000
H      26.36900000     34.95900000     16.95600000
H      25.76500000     33.25010000     17.13070000
H      25.49380000     34.43800000     18.45240000
H      28.34830000     34.31300000     18.20840000
