16
pbedef2svp=-362.32078843132
N      37.19700000     35.39700000     27.51300000
C      36.67100000     34.29600000     27.08900000
O      37.30500000     33.23300000     26.79500000
C      38.52800000     32.85400000     23.18200000
C      39.91900000     32.85400000     23.84000000
C      40.76000000     34.03600000     23.39400000
O      41.97500000     34.00800000     23.62400000
H      36.61300000     36.17900000     27.72900000
H      38.18810000     35.46770000     27.62550000
H      35.58340000     34.20810000     26.95000000
H      38.63400000     32.78100000     22.09000000
H      37.99600000     33.78200000     23.43800000
H      39.79500000     32.89900000     24.93200000
H      40.44000000     31.92400000     23.56800000
H      37.96540000     31.98740000     23.55940000
H      40.23850000     34.85270000     22.87340000
