16
pbedef2svp=-362.34431153101 b3lypdef2svp=-362.57331538983 b3lypvdz=-362.85858454932
O      27.50700000     32.58700000     18.95800000
C      26.17900000     34.12700000     17.65000000
C      27.47500000     33.65100000     18.30400000
N      28.52500000     34.44700000     18.18900000
C      27.69100000     37.31500000     14.14300000
C      28.46900000     37.47500000     15.42000000
O      28.21300000     36.75300000     16.41100000
H      26.36900000     34.95900000     16.95600000
H      28.44200000     35.28300000     17.64600000
H      25.76500000     33.25010000     17.13070000
H      25.49380000     34.43800000     18.45240000
H      29.39950000     34.24000000     18.62760000
H      28.13900000     37.93800000     13.35500000
H      27.73490000     36.25610000     13.84830000
H      26.63020000     37.58090000     14.26120000
H      29.24750000     38.25190000     15.44120000
