15
pbedef2svp=-378.38459201593 b3lypdef2svp=-378.61622237687 b3lypvdz=-378.91360687974
N      28.52500000     34.44700000     18.18900000
C      27.47500000     33.65100000     18.30400000
O      27.50700000     32.58700000     18.95800000
N      26.43600000     30.23200000     20.00400000
C      25.03400000     30.17000000     20.40100000
C      27.33100000     29.31700000     20.36400000
O      27.10100000     28.34600000     21.09700000
H      28.44200000     35.28300000     17.64600000
H      29.39950000     34.24000000     18.62760000
H      26.54180000     33.99370000     17.83310000
H      26.73800000     30.99700000     19.43500000
H      24.85900000     29.26400000     21.00000000
H      24.36060000     30.15480000     19.53130000
H      24.76010000     31.04090000     21.01460000
H      28.36380000     29.50180000     20.03350000
