14
pbedef2svp=-249.20888273131
C      29.18300000     39.72200000     21.58100000
C      27.70000000     39.72100000     21.22800000
N      30.12400000     34.53300000     21.19100000
C      30.05200000     35.04200000     20.00400000
O      30.10500000     36.30500000     19.78800000
H      29.62800000     38.78600000     21.21200000
H      27.20800000     38.86400000     21.71100000
H      27.23900000     40.65500000     21.58100000
H      27.58300000     39.64300000     20.13700000
H      29.71460000     40.56560000     21.11660000
H      29.27350000     39.74230000     22.67710000
H      29.93800000     33.55900000     21.31800000
H      30.36200000     35.09350000     21.98420000
H      29.86790000     34.38390000     19.14200000
