15
pbedef2svp=-324.23196716666
C      26.54100000     18.73200000      9.25100000
O      26.33300000     18.53600000     10.45700000
N      24.24000000     19.23300000     12.24600000
C      22.92400000     18.58300000     12.02500000
C      23.05900000     17.32600000     11.15400000
O      23.91400000     16.39500000     11.75500000
H      26.02170000     19.52920000      8.69890000
H      27.22310000     18.08900000      8.67540000
H      25.09100000     18.79700000     11.95400000
H      22.28300000     19.29200000     11.48000000
H      22.06600000     16.87100000     11.02100000
H      23.46700000     17.60900000     10.17200000
H      23.98400000     15.62600000     11.20200000
H      24.24070000     20.12460000     12.69880000
H      22.41860000     18.33650000     12.97040000
