14
pbedef2svp=-361.13054764019 b3lypdef2svp=-361.35178115204 b3lypvdz=-361.63684266053
C      31.02200000     29.28800000      5.66500000
O      29.80900000     29.39500000      5.54500000
N      31.83400000     28.41200000      5.12500000
C      31.22000000     27.34100000      4.27500000
C      31.44000000     26.07900000      5.08000000
O      32.57600000     25.80200000      5.46100000
C      31.82700000     27.26200000      2.89400000
H      32.82200000     28.45600000      5.27400000
H      30.13900000     27.52500000      4.18300000
H      32.92200000     27.30900000      2.98900000
H      31.53900000     26.30300000      2.43900000
H      31.49180000     29.99600000      6.36360000
H      30.50170000     25.56340000      5.33240000
H      31.49770000     28.07680000      2.23250000
