13
pbedef2svp=-377.18937307358 b3lypdef2svp=-377.41256861005 b3lypvdz=-377.71056559644
C      30.75500000     44.35100000     16.27700000
O      31.20700000     45.26800000     15.56600000
N      29.72100000     43.67300000     15.88500000
C      28.97800000     43.96000000     14.67800000
C      29.60400000     43.50700000     13.39300000
O      29.21900000     43.98100000     12.30100000
N      30.56300000     42.62300000     13.49500000
H      29.42000000     42.90600000     16.45100000
H      27.99600000     43.47100000     14.76400000
H      28.84100000     45.05000000     14.61900000
H      30.87700000     42.35700000     14.40600000
H      31.24500000     44.04910000     17.21440000
H      30.99400000     42.20360000     12.69610000
