14
pbedef2svp=-361.13183780259 b3lypdef2svp=-361.35183540801 b3lypvdz=-361.63747343894
C      23.46100000     17.33100000     16.74100000
C      24.18400000     16.01600000     16.61900000
O      25.30300000     15.89400000     17.15200000
C      22.22900000     18.24400000     13.32500000
O      20.96300000     18.25300000     13.39500000
N      22.99700000     17.97800000     14.36600000
C      22.41800000     17.63800000     15.69300000
H      24.21600000     18.13000000     16.70200000
H      22.96200000     17.34600000     17.72100000
H      23.99100000     18.00600000     14.25900000
H      21.81600000     16.72700000     15.56300000
H      23.65440000     15.22930000     16.06170000
H      22.73440000     18.49050000     12.37960000
H      21.73010000     18.42720000     16.03050000
