12
pbedef2svp=-247.97410635616 b3lypdef2svp=-248.13136375061 b3lypvdz=-248.32590777613
N      34.93000000     34.38400000     25.45100000
C      35.16100000     34.17400000     26.89600000
C      36.67100000     34.29600000     27.08900000
O      37.30500000     33.23300000     26.79500000
C      34.71700000     32.76000000     27.28600000
H      35.33500000     33.73400000     24.80800000
H      34.63100000     34.92600000     27.50000000
H      33.77000000     32.82600000     27.84100000
H      34.56500000     32.17100000     26.37000000
H      34.39030000     35.14080000     25.08230000
H      37.11890000     35.23360000     27.45010000
H      35.46230000     32.25160000     27.91540000
