12
pbedef2svp=-285.06167545965
C      31.74400000     38.87900000     16.29900000
O      31.73700000     40.25700000     15.82400000
C      29.60400000     43.50700000     13.39300000
O      29.21900000     43.98100000     12.30100000
N      30.56300000     42.62300000     13.49500000
H      32.36600000     38.76400000     17.19900000
H      32.61800000     40.51000000     15.57300000
H      30.68610000     38.71460000     16.55180000
H      32.11290000     38.22830000     15.49250000
H      30.87700000     42.35700000     14.40600000
H      29.14480000     43.83930000     14.33570000
H      30.99400000     42.20360000     12.69610000
