8
pbedef2svp=-79.64005072924 b3lypdef2svp=-79.70530022909 b3lypvdz=-79.7630029936
C      32.34500000     34.18300000     18.35800000
C      33.36100000     34.49100000     17.24500000
H      32.46000000     34.90800000     19.17700000
H      34.38200000     34.41200000     17.64800000
H      33.23400000     33.77100000     16.42300000
H      33.19300000     35.51100000     16.86800000
H      31.33610000     34.26900000     17.92820000
H      32.49840000     33.16000000     18.73210000
