11
pbedef2svp=-264.03803285613 b3lypdef2svp=-264.20006979928 b3lypvdz=-264.40630721497
N      25.62100000     32.94500000     16.95000000
C      26.17900000     34.12700000     17.65000000
C      27.47500000     33.65100000     18.30400000
O      27.50700000     32.58700000     18.95800000
N      28.52500000     34.44700000     18.18900000
H      25.18900000     32.20800000     17.47000000
H      26.36900000     34.95900000     16.95600000
H      28.44200000     35.28300000     17.64600000
H      25.68090000     32.89130000     15.95320000
H      25.49380000     34.43800000     18.45240000
H      29.39950000     34.24000000     18.62760000
