8
pbedef2svp=-79.64032160714 b3lypdef2svp=-79.7055759335 b3lypvdz=-79.76328869702
C      29.96300000     33.31700000     12.81400000
C      29.95700000     31.83800000     12.35200000
H      30.75600000     33.85900000     12.27900000
H      30.93100000     31.37900000     12.57700000
H      29.16300000     31.29200000     12.88200000
H      29.77200000     31.79300000     11.26900000
H      28.99080000     33.78090000     12.59130000
H      30.14340000     33.37300000     13.89770000
