23
pbedef2svp=-312.78695833984
C      35.23800000     23.38200000     12.92000000
O      36.06600000     24.10900000     12.33300000
C      38.79400000     25.76100000     13.88000000
C      39.28500000     24.33600000     13.56600000
C      36.15300000     25.62000000      9.40900000
C      34.75800000     25.28000000      8.90000000
C      34.79300000     24.26400000      7.76700000
H      35.49140000     22.34750000     13.19500000
H      34.21620000     23.68330000     13.19390000
H      39.53500000     26.22600000     14.54600000
H      40.25500000     24.38700000     13.05000000
H      39.39800000     23.77200000     14.50400000
H      38.55200000     23.83000000     12.92000000
H      37.82360000     25.74750000     14.39780000
H      38.74620000     26.36250000     12.96030000
H      36.87800000     25.50100000      8.59000000
H      36.41500000     24.94000000     10.23300000
H      34.16900000     24.86400000      9.73100000
H      34.27900000     26.20100000      8.53600000
H      35.65600000     23.59600000      7.90900000
H      33.86500000     23.67300000      7.78500000
H      36.18190000     26.65820000      9.77140000
H      34.88200000     24.76430000      6.79140000
