10
pbedef2svp=-192.74450201965 b3lypdef2svp=-192.87121044982 b3lypvdz=-193.02260734198
C      30.92500000     34.30400000     17.75300000
C      29.80100000     34.14500000     18.82900000
C      30.05200000     35.04200000     20.00400000
O      30.10500000     36.30500000     19.78800000
H      30.79800000     33.52100000     16.99100000
H      30.82500000     35.29300000     17.28200000
H      29.80100000     33.10000000     19.17200000
H      31.93390000     34.21800000     18.18280000
H      28.83900000     34.37270000     18.34650000
H      30.11320000     34.60920000     21.01340000
