12
pbedef2svp=-193.91978394126
C      38.42100000     28.04800000     21.34100000
O      37.21300000     28.03600000     21.70400000
C      34.73800000     30.87500000     21.47300000
C      34.87600000     30.23700000     20.06600000
H      38.71040000     28.02750000     20.27990000
H      39.22070000     28.08320000     22.09540000
H      34.44500000     31.92400000     21.31900000
H      35.08000000     29.16300000     20.18800000
H      33.92600000     30.37100000     19.52700000
H      35.70020000     30.86360000     22.00590000
H      33.90320000     30.37660000     21.98740000
H      35.68390000     30.68000000     19.46510000
