8
pbedef2svp=-79.63408353877 b3lypdef2svp=-79.69921573579 b3lypvdz=-79.75693711521
C      24.46900000     19.33200000      7.95200000
C      25.82900000     19.82500000      8.49400000
H      24.49800000     18.25500000      7.73000000
H      23.65900000     19.53700000      8.66800000
H      25.66900000     20.69300000      9.15000000
H      24.34380000     19.92280000      7.03260000
H      26.37750000     20.12180000      7.58790000
H      26.34830000     19.02780000      9.04610000
