13
pbedef2svp=-377.18112506882 b3lypdef2svp=-377.40206440071 b3lypvdz=-377.70103721749
N      39.65500000     34.33500000     11.28500000
C      41.39900000     31.33800000      9.96700000
O      42.26000000     32.03600000      9.38100000
N      40.11700000     31.75000000      9.98800000
C      39.80800000     32.99400000      9.23300000
C      39.83700000     34.27100000      9.99500000
O      40.16400000     35.32300000      9.34500000
H      39.48700000     33.47600000     11.76900000
H      39.41000000     31.24600000     10.48500000
H      40.65200000     33.09000000      8.53400000
H      39.66950000     35.17360000     11.82950000
H      41.63080000     30.38150000     10.45830000
H      38.94160000     32.85380000      8.56990000
