12
pbedef2svp=-193.91751902347
C      37.44100000     28.88200000     11.05200000
O      38.02000000     29.77200000     10.38200000
C      41.71800000     30.02200000     10.64300000
C      41.39800000     28.78000000      9.81000000
H      37.46240000     27.81700000     10.77770000
H      36.92150000     29.11950000     11.99210000
H      42.79800000     30.00900000     10.85200000
H      41.23000000     27.91100000     10.46300000
H      40.50500000     28.95100000      9.19100000
H      41.18550000     29.91510000     11.59960000
H      41.48610000     30.97850000     10.15170000
H      42.28190000     28.61950000      9.17520000
