8
pbedef2svp=-79.64017985845 b3lypdef2svp=-79.70540977974 b3lypvdz=-79.76313967118
C      33.28400000     30.50400000     14.55200000
C      34.22800000     30.63000000     13.31900000
H      32.24400000     30.40100000     14.20900000
H      33.56500000     29.61800000     15.14000000
H      33.37700000     31.40400000     15.17800000
H      33.94700000     31.51600000     12.73100000
H      34.13500000     29.73000000     12.69300000
H      35.26830000     30.73260000     13.66130000
