16
pbedef2svp=-362.33227347242 b3lypdef2svp=-362.56146317183 b3lypvdz=-362.84661817337
N      28.52500000     34.44700000     18.18900000
C      27.47500000     33.65100000     18.30400000
O      27.50700000     32.58700000     18.95800000
C      27.69100000     37.31500000     14.14300000
C      28.46900000     37.47500000     15.42000000
O      28.21300000     36.75300000     16.41100000
C      26.21900000     37.68400000     14.30700000
H      28.44200000     35.28300000     17.64600000
H      29.39950000     34.24000000     18.62760000
H      26.54180000     33.99370000     17.83310000
H      28.13900000     37.93800000     13.35500000
H      25.70800000     37.42000000     13.36900000
H      25.81700000     37.07300000     15.12800000
H      27.73490000     36.25610000     13.84830000
H      29.24750000     38.25190000     15.44120000
H      25.97730000     38.73380000     14.52920000
