18
pbedef2svp=-326.43788128673 b3lypdef2svp=-326.65258297785 b3lypvdz=-326.9042728724
N      29.69400000     29.43600000     21.05400000
C      28.76200000     29.57300000     19.90600000
C      27.33100000     29.31700000     20.36400000
O      27.10100000     28.34600000     21.09700000
C      29.15100000     28.65500000     18.75500000
C      30.41600000     28.91200000     17.98000000
C      30.73800000     27.69300000     17.12200000
H      29.93800000     28.52400000     21.38400000
H      28.81600000     30.60900000     19.54100000
H      29.23500000     27.64100000     19.17300000
H      28.32300000     28.68600000     18.03100000
H      31.24500000     29.08800000     18.68100000
H      31.66200000     27.87700000     16.55400000
H      30.87500000     26.81500000     17.77000000
H      29.90900000     27.50700000     16.42300000
H      30.08150000     30.24190000     21.50160000
H      26.59060000     30.07400000     20.06620000
H      30.26450000     29.81400000     17.36890000
