10
pbedef2svp=-134.87213228921 b3lypdef2svp=-134.96927898965 b3lypvdz=-135.06973965491
N      39.65500000     34.33500000     11.28500000
C      39.67600000     35.54700000     12.07200000
C      38.29000000     35.81400000     12.69800000
H      39.48700000     33.47600000     11.76900000
H      39.91600000     36.39600000     11.41500000
H      38.04100000     34.96600000     13.35300000
H      38.35600000     36.73400000     13.29800000
H      39.79450000     34.28590000     10.29600000
H      40.40520000     35.53240000     12.89540000
H      37.47370000     35.93710000     11.97100000
