15
pbedef2svp=-233.16696061315
C      33.28400000     30.50400000     14.55200000
C      34.22800000     30.63000000     13.31900000
C      33.53300000     25.09700000     12.97800000
C      34.44100000     26.09900000     13.68400000
O      34.88300000     27.09000000     13.09300000
H      32.24400000     30.40100000     14.20900000
H      33.56500000     29.61800000     15.14000000
H      33.37700000     31.40400000     15.17800000
H      33.94700000     31.51600000     12.73100000
H      34.13500000     29.73000000     12.69300000
H      35.26830000     30.73260000     13.66130000
H      33.61300000     25.28200000     11.89700000
H      33.89050000     24.07720000     13.18320000
H      32.47480000     25.21190000     13.25530000
H      34.68380000     25.86950000     14.73200000
