15
pbedef2svp=-287.25305072353 b3lypdef2svp=-287.43910059609 b3lypvdz=-287.66093856478
C      40.22600000     33.71600000     17.50900000
C      40.44900000     32.27800000     17.94500000
O      39.93600000     31.33600000     17.31500000
N      41.18900000     32.08500000     19.03100000
C      41.46100000     30.75100000     19.59400000
C      42.19500000     31.14200000     20.91300000
H      40.79400000     34.38800000     18.16900000
H      42.11200000     30.14800000     18.94400000
H      41.47600000     31.30900000     21.72900000
H      42.91200000     30.36200000     21.21000000
H      40.53700000     33.86550000     16.46450000
H      39.16150000     33.98680000     17.56870000
H      41.61300000     32.82380000     19.55480000
H      40.52370000     30.22540000     19.82890000
H      42.71490000     32.07470000     20.64900000
