7
pbedef2svp=-95.63938185934 b3lypdef2svp=-95.70889081077 b3lypvdz=-95.78013833531
N      28.26000000     33.94300000     11.09600000
C      28.60500000     33.96500000     12.50300000
H      28.87600000     34.37900000     10.44000000
H      27.82500000     33.46000000     13.09200000
H      27.42560000     33.50580000     10.76040000
H      28.62840000     35.02800000     12.78510000
H      29.57720000     33.50110000     12.72570000
