14
pbedef2svp=-212.10139461698 b3lypdef2svp=-212.24985563558 b3lypvdz=-212.41043460423
C      21.44700000     27.86900000     16.02600000
C      20.63800000     26.73500000     16.05300000
N      23.14100000     29.18700000     19.24100000
C      22.12600000     29.06200000     18.18300000
C      22.49400000     28.05700000     17.10900000
H      20.75100000     26.00800000     16.84400000
H      23.12400000     28.54900000     20.01100000
H      21.95700000     30.04300000     17.71400000
H      23.42500000     28.39400000     16.63000000
H      22.66300000     27.08400000     17.59400000
H      21.35090000     28.61290000     15.22140000
H      19.88410000     26.58120000     15.26690000
H      23.84700000     29.89450000     19.20790000
H      21.20430000     28.75290000     18.69770000
