16
pbedef2svp=-362.32615948744 b3lypdef2svp=-362.5555993378 b3lypvdz=-362.8402386825
C      21.90700000     30.56300000      5.88100000
N      22.09900000     29.16300000      5.60500000
C      21.12700000     28.24000000      5.57400000
O      19.95800000     28.46500000      5.84200000
C      26.85000000     29.02100000      3.89800000
C      26.10000000     29.25300000      5.20200000
O      24.86500000     29.02400000      5.33000000
H      22.89500000     31.02900000      5.75500000
H      23.03200000     28.85400000      5.42200000
H      21.58370000     30.84890000      6.89280000
H      21.28200000     31.02960000      5.10540000
H      21.50810000     27.23660000      5.33340000
H      27.91400000     28.87800000      4.13600000
H      26.47150000     28.10150000      3.42760000
H      26.76460000     29.84380000      3.17300000
H      26.72220000     29.58780000      6.04510000
