7
pbedef2svp=-149.70592263126 b3lypdef2svp=-149.79941376396 b3lypvdz=-149.91595375486
N      45.47700000     29.72600000     29.76300000
N      43.31100000     29.73500000     30.56300000
C      44.17400000     29.90500000     29.55400000
H      46.01900000     29.93000000     28.94800000
H      43.64900000     29.35700000     31.42500000
H      42.34210000     29.97120000     30.48970000
H      43.82740000     30.24080000     28.56550000
