13
pbedef2svp=-323.09658490839 b3lypdef2svp=-323.29844216851 b3lypvdz=-323.55475413668
C      27.33100000     29.31700000     20.36400000
O      27.10100000     28.34600000     21.09700000
O      25.32500000     24.48900000     23.37800000
C      25.34900000     26.87200000     23.64300000
C      25.74300000     25.58600000     22.92200000
N      26.46500000     25.68900000     21.83300000
H      28.36380000     29.50180000     20.03350000
H      26.59060000     30.07400000     20.06620000
H      25.55800000     27.73800000     22.99800000
H      26.78200000     26.59400000     21.54900000
H      24.26500000     26.76500000     23.79650000
H      25.87450000     26.98350000     24.60290000
H      26.71010000     24.89590000     21.27550000
