24
pbedef2svp=-238.92111794486
C      33.28400000     30.50400000     14.55200000
C      34.22800000     30.63000000     13.31900000
C      30.41600000     28.91200000     17.98000000
C      30.20500000     30.16800000     17.12900000
C      30.92500000     34.30400000     17.75300000
C      29.80100000     34.14500000     18.82900000
H      32.24400000     30.40100000     14.20900000
H      33.56500000     29.61800000     15.14000000
H      33.37700000     31.40400000     15.17800000
H      33.94700000     31.51600000     12.73100000
H      34.13500000     29.73000000     12.69300000
H      35.26830000     30.73260000     13.66130000
H      31.24500000     29.08800000     18.68100000
H      31.11700000     30.37800000     16.55200000
H      29.36400000     30.00600000     16.43900000
H      29.98200000     31.02200000     17.78500000
H      29.49180000     28.72420000     18.54620000
H      30.64830000     28.03280000     17.36110000
H      30.79800000     33.52100000     16.99100000
H      30.82500000     35.29300000     17.28200000
H      29.80100000     33.10000000     19.17200000
H      31.93390000     34.21800000     18.18280000
H      28.83900000     34.37270000     18.34650000
H      29.98510000     34.80310000     19.69100000
