7
pbedef2svp=-149.69678558317 b3lypdef2svp=-149.79066903948 b3lypvdz=-149.90647748973
N      26.97500000     15.52100000     20.94200000
C      27.60300000     14.42300000     20.65500000
N      27.47900000     13.73300000     19.53700000
H      27.21900000     15.86700000     21.84800000
H      28.09800000     12.94800000     19.51000000
H      26.30750000     16.10820000     20.48410000
H      28.34420000     14.05400000     21.37920000
