15
pbedef2svp=-378.37819551722 b3lypdef2svp=-378.60990369826 b3lypvdz=-378.90778641927
N      31.69700000     18.31100000     20.40600000
C      32.12800000     19.36400000     19.75000000
O      32.54600000     19.31700000     18.55800000
N      33.54800000     21.52600000     16.95000000
C      35.03100000     21.72200000     17.06900000
C      32.77600000     22.51900000     16.57700000
O      33.23300000     23.65900000     16.38400000
H      31.43900000     18.43200000     21.36400000
H      31.60950000     17.39610000     20.01200000
H      32.22500000     20.30980000     20.30330000
H      33.14600000     20.63400000     17.15600000
H      35.24600000     22.46200000     17.85400000
H      35.45680000     22.06320000     16.11390000
H      35.48830000     20.75920000     17.34080000
H      31.70620000     22.29040000     16.46200000
