14
pbedef2svp=-361.12318102309 b3lypdef2svp=-361.34334999939 b3lypvdz=-361.62934131968
C      38.42100000     28.04800000     21.34100000
O      37.21300000     28.03600000     21.70400000
N      39.37400000     28.09000000     22.24000000
C      39.06300000     28.06300000     23.69500000
C      40.34000000     27.69200000     24.46800000
C      40.55900000     28.58500000     25.67500000
O      40.71600000     29.80900000     25.45600000
H      40.32700000     28.14100000     21.94300000
H      38.35200000     27.23900000     23.85600000
H      40.25700000     26.64900000     24.80900000
H      41.20300000     27.79000000     23.79400000
H      38.71040000     28.02750000     20.27990000
H      38.55900000     28.98150000     24.03010000
H      40.55030000     28.15490000     26.68740000
