9
pbedef2svp=-208.80822176556 b3lypdef2svp=-208.93911860213 b3lypvdz=-209.1024657439
C      34.73800000     30.87500000     21.47300000
C      33.58900000     30.18900000     22.18100000
O      33.58000000     29.00900000     22.49900000
N      32.47800000     30.91700000     22.26900000
H      34.44500000     31.92400000     21.31900000
H      32.49800000     31.87600000     21.98800000
H      35.70020000     30.86360000     22.00590000
H      34.83590000     30.42250000     20.47520000
H      31.62410000     30.52410000     22.61040000
