6
pbedef2svp=-169.57379287834 b3lypdef2svp=-169.67580995852 b3lypvdz=-169.81013331553
O      29.93000000     16.47700000     10.60600000
N      29.59900000     18.59900000      9.82800000
C      29.25800000     17.31800000      9.98400000
H      29.07000000     19.20900000      9.23800000
H      30.40390000     18.92440000     10.32420000
H      28.38130000     16.96630000      9.42040000
