25
pbedef2svp=-276.96199620415
C      28.40700000     22.94800000     16.36600000
C      29.00600000     22.04300000     17.44200000
C      26.82600000     24.52100000     21.01200000
C      27.04300000     24.99200000     19.57100000
C      25.93100000     25.84400000     18.95900000
C      26.20300000     26.08300000     17.47100000
C      24.57700000     25.19000000     19.07900000
H      27.34900000     22.68900000     16.21600000
H      28.48600000     23.99800000     16.68500000
H      28.95600000     22.80900000     15.42300000
H      28.90200000     21.00100000     17.10700000
H      28.43100000     22.19000000     18.36800000
H      30.06740000     22.22320000     17.66770000
H      25.96700000     23.83400000     21.00400000
H      27.96900000     25.58500000     19.54900000
H      27.16400000     24.09800000     18.94200000
H      25.90600000     26.81600000     19.47400000
H      25.39600000     26.69700000     17.04400000
H      27.16300000     26.60700000     17.35300000
H      26.24600000     25.11700000     16.94600000
H      23.81400000     25.84000000     18.62600000
H      24.59000000     24.22100000     18.55800000
H      24.33900000     25.03100000     20.14100000
H      26.55630000     25.39350000     21.62530000
H      27.67130000     23.98540000     21.46870000
