8
pbedef2svp=-228.56054294511
C      26.91300000     26.63900000      3.53100000
O      27.88600000     26.46300000      4.26300000
C      29.27900000     23.22700000      5.64100000
O      28.47800000     23.52200000      4.72500000
H      26.45330000     25.76780000      3.04140000
H      26.42360000     27.59660000      3.29980000
H      30.00160000     23.95610000      6.03630000
H      29.36350000     22.24810000      6.13550000
