16
pbedef2svp=-213.32601836711 b3lypdef2svp=-213.47898187294 b3lypvdz=-213.63779778135
C      30.92500000     34.30400000     17.75300000
C      32.34500000     34.18300000     18.35800000
C      33.36100000     34.49100000     17.24500000
N      28.52500000     34.44700000     18.18900000
C      29.80100000     34.14500000     18.82900000
H      30.79800000     33.52100000     16.99100000
H      30.82500000     35.29300000     17.28200000
H      32.46000000     34.90800000     19.17700000
H      34.38200000     34.41200000     17.64800000
H      33.23400000     33.77100000     16.42300000
H      33.19300000     35.51100000     16.86800000
H      28.44200000     35.28300000     17.64600000
H      29.80100000     33.10000000     19.17200000
H      32.49840000     33.16000000     18.73210000
H      27.73110000     33.84520000     18.27590000
H      29.98510000     34.80310000     19.69100000
