7
pbedef2svp=-149.70485765763 b3lypdef2svp=-149.79831710536 b3lypvdz=-149.91465990758
C      27.13200000     32.42300000     26.57400000
N      27.63000000     33.65600000     26.46100000
N      27.87500000     31.31700000     26.44300000
H      26.91600000     34.35400000     26.51200000
H      27.44700000     30.43800000     26.65100000
H      26.04450000     32.32100000     26.70400000
H      28.83130000     31.31490000     26.15050000
