9
pbedef2svp=-208.80759448425 b3lypdef2svp=-208.93822980809 b3lypvdz=-209.10159049209
O      32.57600000     25.80200000      5.46100000
N      30.31000000     25.45800000      5.38400000
C      31.22000000     27.34100000      4.27500000
C      31.44000000     26.07900000      5.08000000
H      29.44600000     25.83300000      5.04800000
H      30.13900000     27.52500000      4.18300000
H      30.29490000     24.62620000      5.93880000
H      31.67060000     28.12700000      4.89880000
H      31.66200000     27.28350000      3.26940000
