8
pbedef2svp=-79.63956196779 b3lypdef2svp=-79.70480801602 b3lypvdz=-79.762501834
C      39.50200000     37.34000000     26.00200000
C      39.33700000     38.85400000     25.86200000
H      40.56300000     37.08500000     25.86300000
H      39.63800000     39.16400000     24.85000000
H      38.28400000     39.12500000     26.03100000
H      39.97000000     39.36200000     26.60500000
H      39.19650000     37.05110000     27.01850000
H      38.91040000     36.83880000     25.22170000
