16
pbedef2svp=-362.32096257411
C      36.33400000     31.74200000     23.08700000
O      35.57400000     32.61800000     23.48300000
C      34.73800000     30.87500000     21.47300000
N      36.00000000     30.86000000     22.17200000
C      41.46100000     30.75100000     19.59400000
C      40.16800000     30.02600000     19.91800000
O      39.26400000     30.66200000     20.52100000
H      34.44500000     31.92400000     21.31900000
H      36.65600000     30.13900000     21.94800000
H      37.33660000     31.66700000     23.53330000
H      33.90320000     30.37660000     21.98740000
H      34.83590000     30.42250000     20.47520000
H      42.11200000     30.14800000     18.94400000
H      41.25790000     31.74700000     19.17360000
H      41.97880000     31.02680000     20.52450000
H      40.07650000     28.96140000     19.65690000
