7
pbedef2svp=-153.5203339136 b3lypdef2svp=-153.61909673604 b3lypvdz=-153.74146834613
C      38.79400000     25.76100000     13.88000000
C      38.72800000     26.59100000     12.61100000
O      39.70400000     27.34600000     12.27700000
H      39.53500000     26.22600000     14.54600000
H      37.82360000     25.74750000     14.39780000
H      39.14480000     24.74290000     13.65570000
H      37.81870000     26.55110000     11.99320000
