16
pbedef2svp=-304.43718463165
N      23.88000000     26.72700000     23.85100000
C      25.34900000     26.87200000     23.64300000
N      26.43600000     30.23200000     20.00400000
C      25.03400000     30.17000000     20.40100000
C      27.33100000     29.31700000     20.36400000
O      27.10100000     28.34600000     21.09700000
H      23.53200000     26.35300000     24.71100000
H      25.55800000     27.73800000     22.99800000
H      23.24130000     27.00270000     23.13260000
H      25.63300000     25.94500000     23.12330000
H      25.87450000     26.98350000     24.60290000
H      26.73800000     30.99700000     19.43500000
H      24.85900000     29.26400000     21.00000000
H      24.36060000     30.15480000     19.53130000
H      24.76010000     31.04090000     21.01460000
H      28.36380000     29.50180000     20.03350000
