17
pbedef2svp=-309.14835768207
O      23.57900000     31.32100000      9.55400000
C      22.50400000     31.22800000     10.13600000
C      26.13600000     35.34600000      6.64000000
C      23.81200000     34.03100000      5.67700000
C      25.69500000     34.49800000      8.94600000
C      25.28800000     34.60900000      7.49900000
C      24.14700000     33.96600000      7.03800000
H      21.73270000     30.53490000      9.76920000
H      22.28250000     31.77120000     11.06650000
H      27.00600000     35.85800000      7.02300000
H      22.94800000     33.51100000      5.29000000
H      24.80600000     34.23900000      9.53900000
H      26.08400000     35.47300000      9.27400000
H      23.51900000     33.41800000      7.72500000
H      25.88200000     35.38180000      5.57030000
H      24.45850000     34.62870000      5.01770000
H      26.46770000     33.73610000      9.12610000
