12
pbedef2svp=-248.03778875932 b3lypdef2svp=-248.19566372298 b3lypvdz=-248.38859014109
N      36.81100000     29.17000000     12.19200000
C      37.47100000     27.39100000     10.66800000
C      37.44100000     28.88200000     11.05200000
O      38.02000000     29.77200000     10.38200000
C      36.19300000     27.05800000      9.91100000
H      36.39600000     28.44100000     12.73600000
H      38.32600000     27.22700000      9.99500000
H      35.33700000     27.21800000     10.58200000
H      36.11200000     27.73300000      9.04600000
H      36.75670000     30.12000000     12.49940000
H      37.59160000     26.75970000     11.56070000
H      36.16410000     26.01980000      9.54860000
