16
pbedef2svp=-159.27576348949
C      26.77200000     33.43600000      9.19700000
C      25.69500000     34.49800000      8.94600000
C      30.09100000     34.39300000      5.07800000
C      30.50500000     33.88400000      6.51200000
H      27.66100000     33.67200000      8.59400000
H      24.80600000     34.23900000      9.53900000
H      26.08400000     35.47300000      9.27400000
H      26.36600000     32.46180000      8.88710000
H      27.04930000     33.38190000     10.26010000
H      25.39800000     34.57900000      7.89000000
H      29.47000000     33.64700000      4.56000000
H      29.59500000     33.63500000      7.07700000
H      31.09520000     34.48230000      4.63800000
H      29.60530000     35.37950000      5.10770000
H      31.04940000     34.69580000      7.01660000
H      31.16480000     33.00520000      6.46380000
