6
pbedef2svp=-169.57194043553 b3lypdef2svp=-169.6749884874 b3lypvdz=-169.80893642837
N      23.88000000     26.72700000     23.85100000
C      23.04600000     27.08700000     22.91300000
O      23.38300000     27.62700000     21.87000000
H      23.53200000     26.35300000     24.71100000
H      24.86540000     26.82430000     23.71150000
H      21.97730000     26.87910000     23.07020000
