17
pbedef2svp=-288.44718036026
C      30.52000000     22.30000000     17.76400000
C      29.00600000     22.04300000     17.44200000
C      29.01500000     21.65700000     22.28800000
C      29.94200000     21.10600000     21.24000000
O      29.47000000     20.67700000     20.19000000
N      31.23300000     21.09000000     21.45900000
H      30.88200000     21.52100000     18.45100000
H      28.90200000     21.00100000     17.10700000
H      28.43100000     22.19000000     18.36800000
H      31.06370000     22.22990000     16.81040000
H      30.74120000     23.29180000     18.18510000
H      28.57490000     22.69440000     16.66750000
H      29.58400000     22.29400000     22.98200000
H      31.54300000     21.39500000     22.36000000
H      28.21680000     22.24540000     21.81190000
H      28.53100000     20.84640000     22.85260000
H      31.93830000     20.80210000     20.81120000
