13
pbedef2svp=-265.21677106704 b3lypdef2svp=-265.38666169644 b3lypvdz=-265.59261041577
N      22.09900000     29.16300000      5.60500000
C      21.90700000     30.56300000      5.88100000
N      26.84900000     29.65600000      6.21700000
C      26.10000000     29.25300000      5.20200000
O      24.86500000     29.02400000      5.33000000
H      23.03200000     28.85400000      5.42200000
H      22.89500000     31.02900000      5.75500000
H      21.37400000     28.47460000      5.58190000
H      21.58370000     30.84890000      6.89280000
H      21.28200000     31.02960000      5.10540000
H      27.84300000     29.68800000      6.11500000
H      26.43290000     29.92850000      7.08450000
H      26.64200000     29.08530000      4.25960000
