12
pbedef2svp=-193.92150870904
C      35.23800000     23.38200000     12.92000000
O      36.06600000     24.10900000     12.33300000
C      36.19300000     27.05800000      9.91100000
C      36.15300000     25.62000000      9.40900000
H      35.49140000     22.34750000     13.19500000
H      34.21620000     23.68330000     13.19390000
H      35.33700000     27.21800000     10.58200000
H      36.11200000     27.73300000      9.04600000
H      36.87800000     25.50100000      8.59000000
H      36.41500000     24.94000000     10.23300000
H      37.11650000     27.29860000     10.45800000
H      35.14570000     25.37450000      9.04150000
