18
pbedef2svp=-272.3748820874
C      24.51700000     21.47000000     20.03000000
O      25.24800000     21.30200000     21.19100000
C      25.05200000     21.28500000     18.77600000
C      26.92600000     18.19100000     18.89200000
C      26.62100000     17.79900000     20.35200000
C      28.10800000     17.43900000     18.27600000
H      26.12400000     21.00400000     20.97400000
H      26.07000000     20.94100000     18.66600000
H      23.48040000     21.81500000     20.15790000
H      24.43870000     21.48870000     17.88590000
H      27.14900000     19.26800000     18.86300000
H      26.03200000     17.98500000     18.28500000
H      27.54500000     17.79200000     20.94900000
H      25.90200000     18.50300000     20.79700000
H      27.85100000     16.37300000     18.19200000
H      26.18900000     16.78870000     20.30110000
H      29.02550000     17.55440000     18.87180000
H      28.30110000     17.84390000     17.27160000
