15
pbedef2svp=-378.33144892951 b3lypdef2svp=-378.56442003473 b3lypvdz=-378.86335375271
N      22.09900000     29.16300000      5.60500000
C      21.12700000     28.24000000      5.57400000
O      19.95800000     28.46500000      5.84200000
N      26.33500000     27.77000000      3.25800000
C      26.85000000     29.02100000      3.89800000
C      26.10000000     29.25300000      5.20200000
O      24.86500000     29.02400000      5.33000000
H      23.03200000     28.85400000      5.42200000
H      21.96560000     30.13540000      5.79670000
H      21.50810000     27.23660000      5.33340000
H      25.55800000     27.80400000      2.63000000
H      27.91400000     28.87800000      4.13600000
H      26.77990000     26.89940000      3.46810000
H      26.76460000     29.84380000      3.17300000
H      26.72220000     29.58780000      6.04510000
