16
pbedef2svp=-362.32468293399
N      27.94200000     22.44800000     21.64800000
C      29.01500000     21.65700000     22.28800000
C      27.99400000     23.78100000     21.64300000
O      28.90400000     24.44400000     22.09800000
C      27.55300000     27.35600000     24.69500000
C      28.26200000     27.57600000     26.02000000
O      29.18900000     26.84000000     26.33500000
H      27.17100000     21.98000000     21.21600000
H      29.58400000     22.29400000     22.98200000
H      29.69310000     21.25390000     21.52140000
H      28.53100000     20.84640000     22.85260000
H      27.14870000     24.31660000     21.18630000
H      28.02600000     26.52000000     24.15900000
H      27.62300000     28.26900000     24.08500000
H      26.49540000     27.11990000     24.88400000
H      27.86100000     28.41020000     26.61440000
