6
pbedef2svp=-169.57221642411 b3lypdef2svp=-169.6740277728 b3lypvdz=-169.80856209902
N      35.13900000     21.62400000     14.66200000
C      35.61500000     22.19000000     15.75900000
O      36.53200000     23.04600000     15.72400000
H      34.42500000     20.93200000     14.76600000
H      35.44610000     21.84260000     13.73580000
H      35.18920000     21.84880000     16.71410000
