7
pbedef2svp=-153.52372954153 b3lypdef2svp=-153.6231252724 b3lypvdz=-153.74513525981
C      41.71800000     30.02200000     10.64300000
C      41.39900000     31.33800000      9.96700000
O      42.26000000     32.03600000      9.38100000
H      42.79800000     30.00900000     10.85200000
H      41.18550000     29.91510000     11.59960000
H      41.48780000     29.12870000     10.04380000
H      40.35190000     31.67450000      9.98420000
