8
pbedef2svp=-79.63997744061 b3lypdef2svp=-79.70519040431 b3lypvdz=-79.76293580833
C      38.47100000     35.54600000     17.04500000
C      36.95800000     35.74600000     16.68000000
H      38.76200000     36.27900000     17.81200000
H      39.08700000     35.69300000     16.14500000
H      36.80500000     36.76400000     16.29200000
H      36.66600000     35.01400000     15.91300000
H      36.34200000     35.60000000     17.57900000
H      38.62780000     34.52890000     17.43350000
