14
pbedef2svp=-307.03209135785
C      40.44900000     32.27800000     17.94500000
O      39.93600000     31.33600000     17.31500000
O      42.77000000     27.65500000     15.90600000
C      40.99600000     29.39900000     14.86500000
C      42.44500000     29.84800000     15.18200000
C      43.09000000     28.82800000     16.09500000
H      40.28750000     33.31930000     17.62930000
H      41.06180000     32.11820000     18.84440000
H      40.46600000     29.18400000     15.80400000
H      41.02200000     28.49200000     14.24300000
H      43.02100000     29.92200000     14.24800000
H      42.42600000     30.82900000     15.68000000
H      40.47110000     30.19970000     14.32350000
H      43.76290000     29.18110000     16.89030000
