15
pbedef2svp=-378.33267756534
N      21.67400000     30.03400000      8.19100000
C      21.46600000     30.95300000      7.26100000
O      21.06600000     32.11200000      7.53300000
N      20.29100000     24.87500000      9.50700000
C      20.08100000     24.77300000      8.03300000
C      20.82200000     25.91400000      7.33200000
O      21.32300000     26.83000000      8.00800000
H      22.02400000     29.14200000      7.90400000
H      21.50030000     30.18320000      9.16440000
H      21.78930000     30.66710000      6.24920000
H      19.77500000     25.56800000     10.01100000
H      20.52200000     23.82600000      7.68800000
H      20.91950000     24.28870000     10.01810000
H      19.00400000     24.74610000      7.81060000
H      20.90630000     25.87100000      6.23610000
