19
pbedef2svp=-343.66327916085
N      41.18900000     32.08500000     19.03100000
C      40.44900000     32.27800000     17.94500000
O      39.93600000     31.33600000     17.31500000
C      41.82200000     33.18800000     19.81300000
N      38.88300000     30.11000000     13.71300000
C      40.26900000     30.50800000     14.11500000
C      40.99600000     29.39900000     14.86500000
H      41.10900000     33.65500000     20.50800000
H      42.25100000     33.95800000     19.15500000
H      41.37360000     31.17950000     19.41310000
H      40.28750000     33.31930000     17.62930000
H      42.60380000     32.62870000     20.34770000
H      38.52700000     29.20100000     13.93100000
H      40.23000000     31.41000000     14.74400000
H      40.46600000     29.18400000     15.80400000
H      41.02200000     28.49200000     14.24300000
H      38.32150000     30.77540000     13.22100000
H      40.85770000     30.72260000     13.21090000
H      42.02450000     29.71770000     15.09000000
