12
pbedef2svp=-248.03129981557 b3lypdef2svp=-248.19062604032 b3lypvdz=-248.38266164974
C      28.46800000     20.94000000      5.98000000
C      27.81900000     20.60900000      7.31600000
O      28.44900000     20.67400000      8.36000000
N      26.55900000     20.22000000      7.28800000
C      25.82900000     19.82500000      8.49400000
H      27.69800000     21.22000000      5.24600000
H      25.66900000     20.69300000      9.15000000
H      29.15330000     21.77930000      6.16940000
H      29.00550000     20.04320000      5.63800000
H      25.98970000     20.14450000      6.46940000
H      26.34830000     19.02780000      9.04610000
H      24.86060000     19.47400000      8.10810000
