12
pbedef2svp=-248.03800195373 b3lypdef2svp=-248.1965374819 b3lypvdz=-248.38898449363
C      39.67600000     35.54700000     12.07200000
C      40.67500000     35.52700000     13.20000000
O      40.81400000     36.52800000     13.91100000
C      38.29000000     35.81400000     12.69800000
N      41.31700000     34.39300000     13.43200000
H      39.91600000     36.39600000     11.41500000
H      38.04100000     34.96600000     13.35300000
H      38.35600000     36.73400000     13.29800000
H      41.07700000     33.58800000     12.89000000
H      39.66000000     34.62450000     11.47300000
H      37.47370000     35.93710000     11.97100000
H      42.03150000     34.30680000     14.12630000
