8
pbedef2svp=-79.63913827111 b3lypdef2svp=-79.70437222069 b3lypvdz=-79.76202525955
C      29.21300000     19.69700000      5.50600000
C      28.46800000     20.94000000      5.98000000
H      30.07700000     19.54500000      6.16900000
H      28.53000000     18.83800000      5.59000000
H      27.69800000     21.22000000      5.24600000
H      29.58180000     19.73850000      4.47050000
H      29.15330000     21.77930000      6.16940000
H      27.99890000     20.70070000      6.94570000
