15
pbedef2svp=-324.23013012968
C      30.49100000     19.16200000     12.04000000
O      29.36700000     19.52300000     12.44100000
N      27.51000000     17.68900000     15.95400000
C      27.57400000     18.19200000     14.56300000
C      27.29900000     17.05500000     13.53300000
O      25.92500000     16.61100000     13.91300000
H      30.71360000     19.10430000     10.96430000
H      31.33860000     18.97400000     12.71540000
H      26.75900000     17.07400000     16.19600000
H      28.56000000     18.63600000     14.36100000
H      27.28300000     17.48700000     12.52200000
H      25.65000000     15.90600000     13.33900000
H      28.17060000     17.92570000     16.66650000
H      26.79760000     18.96560000     14.46990000
H      27.97910000     16.19060000     13.55110000
