7
pbedef2svp=-95.63635473343 b3lypdef2svp=-95.70583295023 b3lypvdz=-95.77730929781
N      30.12400000     34.53300000     21.19100000
C      30.47900000     35.36900000     22.37400000
H      29.93800000     33.55900000     21.31800000
H      30.50500000     36.43000000     22.08400000
H      30.06830000     34.92650000     20.27340000
H      31.49760000     35.04020000     22.62760000
H      29.75060000     35.23300000     23.18700000
