16
pbedef2svp=-159.27591112151 b3lypdef2svp=-159.40565624198 b3lypvdz=-159.52098869507
C      34.14500000     35.47200000     23.48100000
C      35.11400000     36.56400000     22.90700000
C      39.50200000     37.34000000     26.00200000
C      38.68400000     36.64700000     24.92300000
H      34.41100000     34.50500000     23.02800000
H      34.52600000     37.42200000     22.55000000
H      35.80200000     36.89500000     23.69900000
H      33.11810000     35.73870000     23.19050000
H      34.21370000     35.38510000     24.57540000
H      35.69410000     36.14600000     22.07110000
H      40.56300000     37.08500000     25.86300000
H      39.03200000     36.97300000     23.93200000
H      38.80500000     35.55700000     25.01400000
H      37.62200000     36.90900000     25.04300000
H      39.19650000     37.05110000     27.01850000
H      39.38330000     38.42890000     25.90130000
