21
pbedef2svp=-348.68786038794
C      29.90300000     24.59000000      7.66500000
C      30.86200000     25.49600000      8.38900000
C      31.15200000     24.42100000     12.47700000
C      32.06000000     25.25700000     13.36400000
C      31.92300000     20.43600000      8.75500000
O      32.49300000     19.37400000      8.45600000
O      31.83800000     21.40200000      7.96800000
H      29.89100000     23.63600000      8.21200000
H      30.49800000     25.67400000      9.41200000
H      31.85400000     25.02200000      8.43000000
H      30.93500000     26.45400000      7.85400000
H      30.17450000     24.34680000      6.62710000
H      28.87570000     24.98230000      7.69380000
H      30.10600000     24.56300000     12.78500000
H      31.27200000     24.73600000     11.43000000
H      31.42200000     23.35900000     12.57400000
H      31.94400000     24.89900000     14.39800000
H      33.11820000     25.14210000     13.08670000
H      31.79120000     26.32350000     13.34830000
H      32.26600000     21.18200000      7.14900000
H      31.36200000     20.49370000      9.69940000
