18
pbedef2svp=-326.48705388018 b3lypdef2svp=-326.70180125381 b3lypvdz=-326.95217820353
O      23.57900000     31.32100000      9.55400000
C      21.63700000     28.92300000     10.35300000
N      22.24100000     31.87300000     11.24100000
C      23.21200000     32.76200000     11.89100000
C      22.69900000     34.26700000     11.98500000
C      21.41900000     30.25300000      9.62000000
C      22.50400000     31.22800000     10.13600000
H      22.57800000     28.46500000     10.01500000
H      21.68500000     29.10200000     11.43700000
H      21.34100000     31.75600000     11.66200000
H      24.14700000     32.76300000     11.31200000
H      21.74500000     34.28200000     12.53300000
H      20.41000000     30.65000000      9.80700000
H      20.79700000     28.24970000     10.12700000
H      23.42580000     32.37470000     12.89810000
H      22.54660000     34.58290000     10.94240000
H      23.43720000     34.88740000     12.51420000
H      21.61010000     30.08890000      8.54920000
