14
pbedef2svp=-303.27336982768 b3lypdef2svp=-303.46252536761 b3lypvdz=-303.69813001871
N      41.00100000     29.87800000     11.93100000
C      41.71800000     30.02200000     10.64300000
C      41.39900000     31.33800000      9.96700000
O      42.26000000     32.03600000      9.38100000
C      41.39800000     28.78000000      9.81000000
N      40.11700000     31.75000000      9.98800000
H      40.44300000     29.06500000     12.10000000
H      42.79800000     30.00900000     10.85200000
H      41.23000000     27.91100000     10.46300000
H      40.50500000     28.95100000      9.19100000
H      39.41000000     31.24600000     10.48500000
H      41.07040000     30.58720000     12.63260000
H      42.28190000     28.61950000      9.17520000
H      39.90930000     32.58620000      9.48050000
