12
pbedef2svp=-193.91680859406
C      18.45300000     28.94100000     20.59100000
O      17.86000000     27.99400000     21.12800000
C      19.76200000     25.07700000     22.45500000
C      19.63400000     23.88500000     21.53100000
H      18.44580000     29.08700000     19.50080000
H      19.06070000     29.67380000     21.14210000
H      19.49400000     24.79200000     23.48300000
H      19.10600000     25.89300000     22.11700000
H      20.63700000     23.57900000     21.19900000
H      19.16000000     23.05700000     22.07800000
H      20.81510000     25.39150000     22.40950000
H      19.02350000     24.12830000     20.64890000
