6
pbedef2svp=-169.57162167715 b3lypdef2svp=-169.67396271221 b3lypvdz=-169.80828940679
C      36.08300000     30.19400000     17.87500000
O      35.04800000     29.70200000     17.39300000
N      37.22800000     30.12600000     17.23300000
H      37.27600000     29.67300000     16.34300000
H      38.05100000     30.52700000     17.63500000
H      36.03110000     30.68130000     18.85980000
