11
pbedef2svp=-118.86643485065 b3lypdef2svp=-118.95954931087 b3lypvdz=-119.04638560308
C      37.15600000     35.98500000     11.68800000
C      39.67600000     35.54700000     12.07200000
C      38.29000000     35.81400000     12.69800000
H      37.25300000     35.21500000     10.90800000
H      36.19400000     35.86100000     12.20700000
H      39.91600000     36.39600000     11.41500000
H      38.04100000     34.96600000     13.35300000
H      38.35600000     36.73400000     13.29800000
H      37.18200000     36.97790000     11.21530000
H      39.66000000     34.62450000     11.47300000
H      40.40520000     35.53240000     12.89540000
