13
pbedef2svp=-323.07989049104 b3lypdef2svp=-323.28294647708 b3lypvdz=-323.53870583676
C      29.66400000     39.83900000     17.43400000
O      28.85000000     40.56500000     16.85900000
N      29.72100000     43.67300000     15.88500000
C      28.97800000     43.96000000     14.67800000
C      30.75500000     44.35100000     16.27700000
O      31.20700000     45.26800000     15.56600000
H      30.06730000     38.97920000     16.87900000
H      30.05530000     40.03130000     18.44390000
H      29.42000000     42.90600000     16.45100000
H      27.99600000     43.47100000     14.76400000
H      28.84100000     45.05000000     14.61900000
H      29.43720000     43.62770000     13.73530000
H      31.24500000     44.04910000     17.21440000
