7
pbedef2svp=-95.63908787724 b3lypdef2svp=-95.70859345829 b3lypvdz=-95.77995674143
N      19.81000000     29.37800000     18.57800000
C      18.44300000     29.14300000     19.08300000
H      19.96200000     30.14700000     17.95600000
H      17.83100000     30.03000000     18.86300000
H      20.59200000     28.80650000     18.82670000
H      18.45020000     28.99700000     20.17320000
H      18.01730000     28.28560000     18.54110000
