12
pbedef2svp=-285.05228532362
N      29.34000000     17.59400000     19.07600000
C      28.10800000     17.43900000     18.27600000
C      24.18400000     16.01600000     16.61900000
O      25.30300000     15.89400000     17.15200000
O      23.57200000     15.10700000     15.97500000
H      29.44000000     18.40200000     19.65700000
H      27.85100000     16.37300000     18.19200000
H      30.07790000     16.91940000     19.05720000
H      28.30110000     17.84390000     17.27160000
H      27.25840000     17.97950000     18.71880000
H      24.10000000     14.31700000     15.96200000
H      23.65580000     16.97670000     16.70810000
