14
pbedef2svp=-361.12238813191 b3lypdef2svp=-361.34235331655 b3lypvdz=-361.62857377517
C      41.09200000     30.80800000     12.85100000
O      41.82800000     31.80800000     12.68100000
N      41.00100000     29.87800000     11.93100000
C      41.71800000     30.02200000     10.64300000
C      41.39800000     28.78000000      9.81000000
C      42.62600000     28.55700000      8.92800000
O      43.66600000     28.26200000      9.53900000
H      40.44300000     29.06500000     12.10000000
H      42.79800000     30.00900000     10.85200000
H      41.23000000     27.91100000     10.46300000
H      40.50500000     28.95100000      9.19100000
H      40.50330000     30.59340000     13.75510000
H      41.48610000     30.97850000     10.15170000
H      42.45250000     28.78280000      7.86550000
