10
pbedef2svp=-192.74562490164 b3lypdef2svp=-192.87336908409 b3lypvdz=-193.0244139025
C      34.14500000     35.47200000     23.48100000
C      34.23900000     35.35300000     24.97900000
O      33.70700000     36.19700000     25.72800000
C      35.11400000     36.56400000     22.90700000
H      34.41100000     34.50500000     23.02800000
H      34.52600000     37.42200000     22.55000000
H      35.80200000     36.89500000     23.69900000
H      33.11810000     35.73870000     23.19050000
H      34.83270000     34.52050000     25.38450000
H      35.69410000     36.14600000     22.07110000
