12
pbedef2svp=-285.06191932511 b3lypdef2svp=-285.24169858796 b3lypvdz=-285.46814769997
C      35.61400000     40.84700000     10.24000000
N      35.10000000     40.07300000      9.10100000
C      37.19200000     37.36100000     11.03300000
O      37.51900000     38.36000000     11.64500000
O      36.86100000     37.32000000      9.82200000
H      35.70300000     41.89800000      9.92700000
H      36.60900000     40.45600000     10.49800000
H      35.72800000     40.16100000      8.32700000
H      35.02300000     39.11000000      9.36000000
H      34.98800000     40.81170000     11.14380000
H      36.90400000     38.19400000      9.45200000
H      37.16600000     36.36810000     11.50570000
