16
pbedef2svp=-362.32091095165
C      26.10000000     29.25300000      5.20200000
O      24.86500000     29.02400000      5.33000000
C      21.65600000     26.84700000      5.24000000
C      21.12700000     28.24000000      5.57400000
O      19.95800000     28.46500000      5.84200000
C      21.63100000     26.64200000      3.73100000
N      22.09900000     29.16300000      5.60500000
H      26.64200000     29.08530000      4.25960000
H      26.72220000     29.58780000      6.04510000
H      22.70900000     26.81500000      5.55600000
H      22.06200000     27.53200000      3.24900000
H      22.24200000     25.76100000      3.48700000
H      23.03200000     28.85400000      5.42200000
H      21.09940000     26.09800000      5.82240000
H      20.61700000     26.48570000      3.33430000
H      21.96560000     30.13540000      5.79670000
