17
pbedef2svp=-346.26019735627
O      29.93000000     16.47700000     10.60600000
C      29.25800000     17.31800000      9.98400000
C      27.57400000     18.19200000     14.56300000
C      26.48200000     19.28000000     14.43200000
O      25.60900000     19.38800000     15.28700000
C      27.29900000     17.05500000     13.53300000
C      28.23600000     15.86400000     13.55800000
H      28.38130000     16.96630000      9.42040000
H      29.53900000     18.37370000      9.85540000
H      28.56000000     18.63600000     14.36100000
H      27.28300000     17.48700000     12.52200000
H      27.93200000     15.14100000     12.78700000
H      29.26400000     16.20200000     13.35900000
H      28.19300000     15.38400000     14.54700000
H      27.52640000     17.81830000     15.59650000
H      26.56800000     19.93400000     13.55170000
H      26.28680000     16.72790000     13.81300000
