15
pbedef2svp=-378.36357161795
C      36.08300000     30.19400000     17.87500000
O      35.04800000     29.70200000     17.39300000
N      37.22800000     30.12600000     17.23300000
C      40.16800000     30.02600000     19.91800000
O      39.26400000     30.66200000     20.52100000
C      41.03500000     27.90900000     18.87900000
N      40.05900000     28.75800000     19.60700000
H      37.27600000     29.67300000     16.34300000
H      38.05100000     30.52700000     17.63500000
H      36.03110000     30.68130000     18.85980000
H      41.73000000     27.40700000     19.56800000
H      41.60700000     28.49000000     18.14100000
H      41.10530000     30.55160000     19.68310000
H      40.35580000     27.19270000     18.39360000
H      39.21520000     28.25660000     19.79860000
