11
pbedef2svp=-209.91483955718
C      30.21000000     30.50900000     21.65000000
O      29.97800000     31.72600000     21.26900000
N      28.52500000     34.44700000     18.18900000
C      29.80100000     34.14500000     18.82900000
H      30.92970000     30.37810000     22.47150000
H      29.78370000     29.62250000     21.15760000
H      28.44200000     35.28300000     17.64600000
H      29.80100000     33.10000000     19.17200000
H      27.73110000     33.84520000     18.27590000
H      29.98510000     34.80310000     19.69100000
H      30.59150000     34.25680000     18.07230000
