9
pbedef2svp=-208.80839274939 b3lypdef2svp=-208.93879215087 b3lypvdz=-209.10234474593
C      41.84500000     36.55000000     32.68600000
C      41.25100000     37.94100000     32.58800000
O      41.10200000     38.52300000     31.50000000
N      40.94600000     38.47200000     33.75700000
H      41.81600000     36.24100000     33.74100000
H      42.89000000     36.60100000     32.34800000
H      41.11700000     37.92200000     34.57500000
H      41.33150000     35.78050000     32.09090000
H      40.55630000     39.38410000     33.88420000
