14
pbedef2svp=-361.13717927651 b3lypdef2svp=-361.35772615457 b3lypvdz=-361.64312113451
C      29.01500000     21.65700000     22.28800000
C      29.94200000     21.10600000     21.24000000
O      29.47000000     20.67700000     20.19000000
N      31.23300000     21.09000000     21.45900000
C      32.26200000     20.67000000     20.51400000
C      32.12800000     19.36400000     19.75000000
O      32.54600000     19.31700000     18.55800000
H      29.58400000     22.29400000     22.98200000
H      31.54300000     21.39500000     22.36000000
H      32.31500000     21.45700000     19.74700000
H      28.21680000     22.24540000     21.81190000
H      28.53100000     20.84640000     22.85260000
H      33.23390000     20.70250000     21.02820000
H      31.76700000     18.48210000     20.29940000
