24
pbedef2svp=-238.91332621437 b3lypdef2svp=-239.10655696621 b3lypvdz=-239.27959535563
C      30.83200000     23.69900000     18.35800000
C      30.52000000     22.30000000     17.76400000
C      34.50900000     26.07700000     19.36000000
C      33.20600000     26.31100000     20.12200000
C      32.26200000     20.67000000     20.51400000
C      33.63800000     20.71600000     21.24200000
H      30.30700000     23.81600000     19.31800000
H      31.91600000     23.79500000     18.51900000
H      30.49400000     24.47800000     17.65800000
H      30.88200000     21.52100000     18.45100000
H      31.06370000     22.22990000     16.81040000
H      29.45860000     22.11980000     17.53830000
H      34.78800000     25.01600000     19.43700000
H      35.30300000     26.69700000     19.80200000
H      32.92400000     27.37300000     20.07200000
H      32.40100000     25.69700000     19.69200000
H      34.38860000     26.34390000     18.29970000
H      33.38860000     26.01700000     21.16610000
H      32.31500000     21.45700000     19.74700000
H      33.51900000     20.30000000     22.25300000
H      34.35900000     20.10600000     20.67800000
H      31.48610000     20.98670000     21.22650000
H      32.16500000     19.72420000     19.96070000
H      34.02710000     21.74170000     21.32330000
