14
pbedef2svp=-303.22715826635
N      35.04000000     30.25200000     26.73000000
C      34.33800000     29.10300000     26.65000000
N      34.01400000     28.65700000     25.45700000
C      34.73800000     30.87500000     21.47300000
C      33.58900000     30.18900000     22.18100000
O      33.58000000     29.00900000     22.49900000
H      35.16400000     30.85000000     25.93800000
H      33.57700000     27.75900000     25.49900000
H      35.42930000     30.47320000     27.62420000
H      34.14820000     28.54850000     27.58080000
H      34.44500000     31.92400000     21.31900000
H      35.70020000     30.86360000     22.00590000
H      34.83590000     30.42250000     20.47520000
H      32.67090000     30.79060000     22.25370000
