16
pbedef2svp=-362.33716728646 b3lypdef2svp=-362.56651318975 b3lypvdz=-362.85189971689
C      36.33400000     31.74200000     23.08700000
O      35.57400000     32.61800000     23.48300000
N      36.00000000     30.86000000     22.17200000
C      37.73800000     31.63700000     23.71200000
C      38.81700000     28.02000000     19.88900000
C      38.42100000     28.04800000     21.34100000
O      37.21300000     28.03600000     21.70400000
H      36.65600000     30.13900000     21.94800000
H      37.65300000     31.71100000     24.80600000
H      35.12530000     30.87040000     21.68750000
H      38.24310000     30.69940000     23.43680000
H      38.30060000     32.50360000     23.33460000
H      38.00200000     28.46900000     19.30300000
H      39.74510000     28.57150000     19.67830000
H      39.01380000     27.01710000     19.48230000
H      39.22070000     28.08320000     22.09540000
