16
pbedef2svp=-345.25327689054
C      27.29900000     17.05500000     13.53300000
O      25.92500000     16.61100000     13.91300000
C      23.05900000     17.32600000     11.15400000
O      23.91400000     16.39500000     11.75500000
C      24.18400000     16.01600000     16.61900000
O      25.30300000     15.89400000     17.15200000
H      27.28300000     17.48700000     12.52200000
H      25.65000000     15.90600000     13.33900000
H      27.49310000     17.85740000     14.25990000
H      27.97910000     16.19060000     13.55110000
H      22.06600000     16.87100000     11.02100000
H      23.46700000     17.60900000     10.17200000
H      23.98400000     15.62600000     11.20200000
H      22.96230000     18.22670000     11.77810000
H      23.65580000     16.97670000     16.70810000
H      23.65440000     15.22930000     16.06170000
