16
pbedef2svp=-362.31820532869 b3lypdef2svp=-362.54815555283 b3lypvdz=-362.83376468372
C      32.12800000     19.36400000     19.75000000
O      32.54600000     19.31700000     18.55800000
C      31.28800000     22.20100000     16.41700000
C      32.77600000     22.51900000     16.57700000
O      33.23300000     23.65900000     16.38400000
N      33.54800000     21.52600000     16.95000000
C      35.03100000     21.72200000     17.06900000
H      32.22500000     20.30980000     20.30330000
H      31.76700000     18.48210000     20.29940000
H      30.85300000     22.93800000     15.72600000
H      33.14600000     20.63400000     17.15600000
H      35.24600000     22.46200000     17.85400000
H      31.15610000     21.19280000     15.99730000
H      30.74430000     22.27110000     17.37060000
H      35.45680000     22.06320000     16.11390000
H      35.48830000     20.75920000     17.34080000
