13
pbedef2svp=-323.09761249713 b3lypdef2svp=-323.29982638525 b3lypvdz=-323.55612814476
C      30.95500000     35.21100000      8.45900000
O      30.02500000     34.61800000      9.04000000
C      26.77200000     33.43600000      9.19700000
C      27.15100000     33.36200000     10.65000000
N      28.26000000     33.94300000     11.09600000
O      26.35000000     32.77800000     11.39500000
H      31.51460000     35.99950000      8.98350000
H      31.19690000     35.02270000      7.40260000
H      27.66100000     33.67200000      8.59400000
H      28.87600000     34.37900000     10.44000000
H      26.36600000     32.46180000      8.88710000
H      25.99930000     34.19790000      9.01690000
H      28.49810000     33.95820000     12.06710000
