13
pbedef2svp=-231.97649400643 b3lypdef2svp=-232.13229227692 b3lypvdz=-232.31245621109
C      30.22500000     38.64300000     16.66200000
C      29.66400000     39.83900000     17.43400000
O      28.85000000     40.56500000     16.85900000
C      31.74400000     38.87900000     16.29900000
C      32.26000000     37.96900000     15.17100000
H      30.16200000     37.75100000     17.30200000
H      32.36600000     38.76400000     17.19900000
H      33.32000000     38.19100000     14.97600000
H      32.15500000     36.91600000     15.47300000
H      31.67400000     38.14900000     14.25800000
H      29.62730000     38.48370000     15.75240000
H      30.05530000     40.03130000     18.44390000
H      31.73870000     39.91890000     15.94050000
