9
pbedef2svp=-208.79622091977 b3lypdef2svp=-208.9260055918 b3lypvdz=-209.08946335962
C      36.73100000     30.57000000     12.64500000
N      36.81100000     29.17000000     12.19200000
C      37.44100000     28.88200000     11.05200000
O      38.02000000     29.77200000     10.38200000
H      36.42300000     31.20600000     11.80200000
H      36.39600000     28.44100000     12.73600000
H      37.74640000     30.86450000     12.94880000
H      36.01010000     30.71520000     13.46310000
H      37.46240000     27.81700000     10.77770000
