18
pbedef2svp=-326.48396161134 b3lypdef2svp=-326.6985529837 b3lypvdz=-326.94917996153
C      31.28800000     22.20100000     16.41700000
C      32.77600000     22.51900000     16.57700000
O      33.23300000     23.65900000     16.38400000
C      30.52000000     22.30000000     17.76400000
N      33.54800000     21.52600000     16.95000000
C      35.03100000     21.72200000     17.06900000
C      35.66700000     20.38300000     17.44700000
H      30.85300000     22.93800000     15.72600000
H      30.88200000     21.52100000     18.45100000
H      33.14600000     20.63400000     17.15600000
H      35.24600000     22.46200000     17.85400000
H      35.07400000     19.98200000     18.28200000
H      35.55700000     19.72700000     16.57100000
H      31.15610000     21.19280000     15.99730000
H      29.45860000     22.11980000     17.53830000
H      30.74120000     23.29180000     18.18510000
H      35.45680000     22.06320000     16.11390000
H      36.72140000     20.31800000     17.75370000
