8
pbedef2svp=-79.6329538849 b3lypdef2svp=-79.69800034886 b3lypvdz=-79.75575869823
C      41.46100000     30.75100000     19.59400000
C      42.19500000     31.14200000     20.91300000
H      42.11200000     30.14800000     18.94400000
H      41.47600000     31.30900000     21.72900000
H      42.91200000     30.36200000     21.21000000
H      41.25790000     31.74700000     19.17360000
H      40.52370000     30.22540000     19.82890000
H      42.71490000     32.07470000     20.64900000
