8
pbedef2svp=-79.64019818466 b3lypdef2svp=-79.70546999647 b3lypvdz=-79.76312849287
C      39.50200000     37.34000000     26.00200000
C      38.68400000     36.64700000     24.92300000
H      40.56300000     37.08500000     25.86300000
H      39.03200000     36.97300000     23.93200000
H      38.80500000     35.55700000     25.01400000
H      37.62200000     36.90900000     25.04300000
H      39.19650000     37.05110000     27.01850000
H      39.38330000     38.42890000     25.90130000
