13
pbedef2svp=-323.05211972057 b3lypdef2svp=-323.24899937723 b3lypvdz=-323.50574403756
N      31.24400000     34.98600000      7.19700000
C      30.50500000     33.88400000      6.51200000
C      31.40900000     32.68000000      6.44600000
O      32.61900000     32.81200000      6.12500000
C      30.09100000     34.39300000      5.07800000
O      31.44000000     34.51300000      4.48700000
H      31.93100000     35.53000000      6.71500000
H      29.59500000     33.63500000      7.07700000
H      29.47000000     33.64700000      4.56000000
H      32.04400000     33.95000000      4.95800000
H      31.02410000     35.15720000      8.15740000
H      30.97270000     31.68690000      6.62880000
H      29.60530000     35.37950000      5.10770000
