14
pbedef2svp=-249.15242024393
C      27.15100000     33.36200000     10.65000000
O      26.35000000     32.77800000     11.39500000
N      22.24100000     31.87300000     11.24100000
C      23.21200000     32.76200000     11.89100000
C      22.69900000     34.26700000     11.98500000
H      26.87370000     33.41610000      9.58690000
H      28.06890000     33.84290000     11.01910000
H      21.34100000     31.75600000     11.66200000
H      24.14700000     32.76300000     11.31200000
H      21.74500000     34.28200000     12.53300000
H      22.44230000     31.37920000     10.39500000
H      23.42580000     32.37470000     12.89810000
H      22.54660000     34.58290000     10.94240000
H      23.43720000     34.88740000     12.51420000
