8
pbedef2svp=-79.63937264008 b3lypdef2svp=-79.70464007627 b3lypvdz=-79.76232312672
C      35.59600000     26.71500000     15.73600000
C      35.71500000     26.20300000     17.17200000
H      35.14500000     27.71800000     15.76300000
H      35.94800000     25.12800000     17.16500000
H      36.51400000     26.74800000     17.69600000
H      34.95080000     26.04660000     15.14690000
H      36.59410000     26.79530000     15.28070000
H      34.75430000     26.37240000     17.68030000
