12
pbedef2svp=-248.03207512072 b3lypdef2svp=-248.19077710305 b3lypvdz=-248.38309434147
C      41.84500000     36.55000000     32.68600000
C      41.25100000     37.94100000     32.58800000
O      41.10200000     38.52300000     31.50000000
N      40.94600000     38.47200000     33.75700000
C      40.37300000     39.81300000     33.94400000
H      41.81600000     36.24100000     33.74100000
H      42.89000000     36.60100000     32.34800000
H      41.11700000     37.92200000     34.57500000
H      41.10400000     40.57500000     33.63700000
H      39.46000000     39.91500000     33.33800000
H      41.33150000     35.78050000     32.09090000
H      40.12830000     39.94110000     35.00880000
