16
pbedef2svp=-213.32565372264 b3lypdef2svp=-213.47846558307 b3lypvdz=-213.63709855909
N      29.69400000     29.43600000     21.05400000
C      28.76200000     29.57300000     19.90600000
C      29.15100000     28.65500000     18.75500000
C      30.41600000     28.91200000     17.98000000
C      30.73800000     27.69300000     17.12200000
H      29.93800000     28.52400000     21.38400000
H      28.81600000     30.60900000     19.54100000
H      29.23500000     27.64100000     19.17300000
H      28.32300000     28.68600000     18.03100000
H      31.24500000     29.08800000     18.68100000
H      31.66200000     27.87700000     16.55400000
H      30.87500000     26.81500000     17.77000000
H      29.90900000     27.50700000     16.42300000
H      30.08150000     30.24190000     21.50160000
H      27.72920000     29.38820000     20.23650000
H      30.26450000     29.81400000     17.36890000
