14
pbedef2svp=-249.14726347092
N      26.46500000     25.68900000     21.83300000
C      26.82600000     24.52100000     21.01200000
C      24.51700000     21.47000000     20.03000000
O      25.24800000     21.30200000     21.19100000
C      25.05200000     21.28500000     18.77600000
H      26.78200000     26.59400000     21.54900000
H      25.96700000     23.83400000     21.00400000
H      25.91410000     25.61040000     22.66390000
H      27.67130000     23.98540000     21.46870000
H      26.98190000     24.85930000     19.97700000
H      26.12400000     21.00400000     20.97400000
H      26.07000000     20.94100000     18.66600000
H      23.48040000     21.81500000     20.15790000
H      24.43870000     21.48870000     17.88590000
