12
pbedef2svp=-244.18035875213 b3lypdef2svp=-244.33398016363 b3lypvdz=-244.52102474678
C      41.89600000     30.08000000     30.45600000
N      43.31100000     29.73500000     30.56300000
C      44.17400000     29.90500000     29.55400000
N      43.75400000     30.31200000     28.35600000
N      45.47700000     29.72600000     29.76300000
H      41.30800000     29.34500000     31.02600000
H      41.60100000     30.04400000     29.39700000
H      43.64900000     29.35700000     31.42500000
H      44.41500000     30.48000000     27.62500000
H      42.77800000     30.44900000     28.18900000
H      46.01900000     29.93000000     28.94800000
H      41.68370000     31.08530000     30.84880000
