15
pbedef2svp=-287.21204520389 b3lypdef2svp=-287.39913436883 b3lypvdz=-287.62141015928
N      20.92400000     25.86200000      6.00600000
C      21.65600000     26.84700000      5.24000000
C      21.12700000     28.24000000      5.57400000
O      19.95800000     28.46500000      5.84200000
C      21.63100000     26.64200000      3.73100000
C      20.21000000     26.42300000      3.17500000
H      20.47700000     25.11200000      5.51900000
H      22.70900000     26.81500000      5.55600000
H      22.06200000     27.53200000      3.24900000
H      22.24200000     25.76100000      3.48700000
H      19.86200000     25.41000000      3.42700000
H      19.52200000     27.16500000      3.60600000
H      20.84740000     25.90110000      7.00230000
H      21.92450000     28.99720000      5.59940000
H      20.25170000     26.54240000      2.08230000
