6
pbedef2svp=-169.57448703239 b3lypdef2svp=-169.67606231671 b3lypvdz=-169.81064240695
N      29.42600000     38.43000000     15.44600000
C      28.46900000     37.47500000     15.42000000
O      28.21300000     36.75300000     16.41100000
H      29.59100000     38.99300000     14.63600000
H      29.96930000     38.57480000     16.27290000
H      27.89990000     37.35800000     14.48590000
