14
pbedef2svp=-361.12812168153 b3lypdef2svp=-361.34801689996 b3lypvdz=-361.63352443981
C      29.94200000     21.10600000     21.24000000
O      29.47000000     20.67700000     20.19000000
N      31.23300000     21.09000000     21.45900000
C      32.26200000     20.67000000     20.51400000
C      32.12800000     19.36400000     19.75000000
O      32.54600000     19.31700000     18.55800000
C      33.63800000     20.71600000     21.24200000
H      31.54300000     21.39500000     22.36000000
H      32.31500000     21.45700000     19.74700000
H      33.51900000     20.30000000     22.25300000
H      34.35900000     20.10600000     20.67800000
H      29.26390000     21.50910000     22.00660000
H      31.76700000     18.48210000     20.29940000
H      34.02710000     21.74170000     21.32330000
