14
pbedef2svp=-249.15792155785
N      31.83400000     28.41200000      5.12500000
C      31.22000000     27.34100000      4.27500000
C      26.85000000     29.02100000      3.89800000
C      26.10000000     29.25300000      5.20200000
O      24.86500000     29.02400000      5.33000000
H      32.82200000     28.45600000      5.27400000
H      30.13900000     27.52500000      4.18300000
H      31.21460000     29.08030000      5.53690000
H      31.38000000     26.42350000      4.86030000
H      31.66200000     27.28350000      3.26940000
H      27.91400000     28.87800000      4.13600000
H      26.47150000     28.10150000      3.42760000
H      26.76460000     29.84380000      3.17300000
H      26.72220000     29.58780000      6.04510000
