14
pbedef2svp=-158.09269614615 b3lypdef2svp=-158.2134135495 b3lypvdz=-158.32924474581
C      25.59400000     21.10900000     13.07200000
C      26.08400000     21.88800000     11.83300000
C      27.42600000     22.61600000     11.90200000
C      27.38000000     23.72100000     12.95500000
H      25.51600000     21.80500000     13.92000000
H      26.14900000     21.16800000     11.00400000
H      25.31800000     22.64300000     11.60300000
H      28.23400000     21.90500000     12.13000000
H      28.35200000     24.23400000     12.99200000
H      26.59400000     24.44400000     12.69300000
H      27.16100000     23.28100000     13.93900000
H      26.33400000     20.32790000     13.30050000
H      24.61890000     20.62400000     12.91710000
H      27.63490000     23.13470000     10.95470000
