17
pbedef2svp=-342.48160023498 b3lypdef2svp=-342.69971039587 b3lypvdz=-342.96378687103
N      24.79000000     32.02100000     13.61800000
C      25.14900000     31.60900000     14.98000000
C      25.69800000     32.87600000     15.66900000
O      26.15800000     33.73000000     14.89400000
N      25.62100000     32.94500000     16.95000000
C      26.17900000     34.12700000     17.65000000
C      25.21400000     34.56500000     18.78000000
H      25.50600000     32.15100000     12.93200000
H      24.28500000     31.20800000     15.53000000
H      25.18900000     32.20800000     17.47000000
H      26.36900000     34.95900000     16.95600000
H      24.95100000     33.70000000     19.40600000
H      25.69000000     35.33700000     19.40200000
H      23.83250000     32.17270000     13.37280000
H      25.97710000     30.88500000     14.97070000
H      27.11220000     33.78430000     18.12090000
H      24.31050000     34.97140000     18.30190000
