9
pbedef2svp=-208.81052660129 b3lypdef2svp=-208.94089755134 b3lypvdz=-209.10435513824
N      41.18900000     32.08500000     19.03100000
C      40.22600000     33.71600000     17.50900000
C      40.44900000     32.27800000     17.94500000
O      39.93600000     31.33600000     17.31500000
H      40.79400000     34.38800000     18.16900000
H      41.37360000     31.17950000     19.41310000
H      41.61300000     32.82380000     19.55480000
H      40.53700000     33.86550000     16.46450000
H      39.16150000     33.98680000     17.56870000
