17
pbedef2svp=-342.48850193626 b3lypdef2svp=-342.70695846679 b3lypvdz=-342.9728091284
N      27.34000000     24.43000000      2.61400000
C      26.26600000     25.41300000      2.84200000
C      26.91300000     26.63900000      3.53100000
O      27.88600000     26.46300000      4.26300000
N      26.33500000     27.77000000      3.25800000
C      26.85000000     29.02100000      3.89800000
C      26.73300000     30.14800000      2.90500000
H      26.96100000     23.61900000      2.16800000
H      28.04300000     24.83400000      2.02900000
H      25.88000000     25.74300000      1.86700000
H      25.55800000     27.80400000      2.63000000
H      27.91400000     28.87800000      4.13600000
H      27.50800000     29.99200000      2.14000000
H      25.73900000     30.07200000      2.44000000
H      25.42290000     25.02360000      3.43160000
H      26.30800000     29.18870000      4.84040000
H      26.84270000     31.17760000      3.27620000
