6
pbedef2svp=-115.48389880101 b3lypdef2svp=-115.56209859097 b3lypvdz=-115.6535903431
O      33.17400000     43.06700000     16.26500000
C      32.97900000     43.91800000     17.44500000
H      34.10300000     42.97400000     16.09100000
H      33.35300000     44.93600000     17.26300000
H      31.88170000     43.93350000     17.52110000
H      33.46820000     43.48580000     18.33040000
