8
pbedef2svp=-79.63915788461 b3lypdef2svp=-79.70436078935 b3lypvdz=-79.76202821756
C      29.47200000     35.18100000     23.49800000
C      29.82100000     35.95700000     24.76500000
H      29.51300000     34.11600000     23.77100000
H      29.05300000     35.77400000     25.53100000
H      30.80000000     35.62400000     25.14100000
H      29.86200000     37.03200000     24.53700000
H      30.20040000     35.31700000     22.68500000
H      28.43580000     35.37980000     23.18710000
