8
pbedef2svp=-79.64023972414 b3lypdef2svp=-79.70548796722 b3lypvdz=-79.76317943726
C      27.39300000     28.44200000     14.22900000
C      26.29000000     29.48000000     13.96000000
H      27.34200000     27.64700000     13.47100000
H      28.37700000     28.93200000     14.18100000
H      27.24900000     28.00500000     15.22800000
H      26.46700000     29.91100000     12.96300000
H      26.30460000     30.29590000     14.69760000
H      25.30590000     28.98870000     13.95420000
