16
pbedef2svp=-358.49434338187
N      28.51900000     13.96700000     21.55000000
C      27.60300000     14.42300000     20.65500000
N      27.47900000     13.73300000     19.53700000
C      30.32000000     16.69800000     19.05100000
O      30.19800000     15.65700000     18.36600000
N      29.34000000     17.59400000     19.07600000
C      28.10800000     17.43900000     18.27600000
H      29.05600000     13.14900000     21.34300000
H      28.65600000     14.45000000     22.41500000
H      28.09800000     12.94800000     19.51000000
H      27.07040000     15.35420000     20.89840000
H      29.44000000     18.40200000     19.65700000
H      27.85100000     16.37300000     18.19200000
H      31.24010000     16.89260000     19.62160000
H      28.30110000     17.84390000     17.27160000
H      27.25840000     17.97950000     18.71880000
