20
pbedef2svp=-364.65398978123
O      33.77800000     18.73900000     14.51600000
C      32.49200000     18.19300000     14.99500000
N      35.13900000     21.62400000     14.66200000
C      35.59000000     21.94500000     13.30200000
C      32.26200000     20.67000000     20.51400000
C      32.12800000     19.36400000     19.75000000
O      32.54600000     19.31700000     18.55800000
H      34.49400000     18.25400000     14.90900000
H      32.40300000     18.31600000     16.08500000
H      31.72450000     18.80410000     14.49760000
H      32.39220000     17.12890000     14.73480000
H      34.42500000     20.93200000     14.76600000
H      36.68700000     21.87000000     13.28900000
H      35.49880000     22.05180000     15.49120000
H      35.33660000     22.97950000     13.02700000
H      35.21250000     21.23590000     12.55060000
H      32.31500000     21.45700000     19.74700000
H      31.48610000     20.98670000     21.22650000
H      33.23390000     20.70250000     21.02820000
H      31.76700000     18.48210000     20.29940000
