14
pbedef2svp=-303.26762377449 b3lypdef2svp=-303.45730525609 b3lypvdz=-303.69271061434
N      31.51000000     18.93600000     12.85200000
N      29.59900000     18.59900000      9.82800000
C      30.79600000     19.08300000     10.56600000
C      30.49100000     19.16200000     12.04000000
O      29.36700000     19.52300000     12.44100000
C      31.15500000     20.51500000     10.04800000
H      32.38900000     18.66700000     12.45900000
H      29.07000000     19.20900000      9.23800000
H      31.64900000     18.41000000     10.39300000
H      30.22700000     21.08200000      9.88300000
H      31.76900000     21.02800000     10.80200000
H      31.43240000     19.02460000     13.84500000
H      29.34350000     17.63930000      9.94490000
H      31.71600000     20.45730000      9.10360000
