14
pbedef2svp=-361.14497192835 b3lypdef2svp=-361.36598007866 b3lypvdz=-361.65140621377
N      31.51000000     18.93600000     12.85200000
C      31.39800000     19.06400000     14.28600000
C      31.59300000     20.55300000     14.65500000
O      32.15900000     21.31100000     13.86100000
C      30.79600000     19.08300000     10.56600000
C      30.49100000     19.16200000     12.04000000
O      29.36700000     19.52300000     12.44100000
H      32.38900000     18.66700000     12.45900000
H      30.40500000     18.73500000     14.62700000
H      31.64900000     18.41000000     10.39300000
H      32.16550000     18.45290000     14.78340000
H      31.19710000     20.80870000     15.64890000
H      29.91060000     18.72500000     10.02010000
H      31.04840000     20.08980000     10.20180000
