14
pbedef2svp=-249.15977800372
N      31.24400000     34.98600000      7.19700000
C      30.50500000     33.88400000      6.51200000
C      26.77200000     33.43600000      9.19700000
C      27.15100000     33.36200000     10.65000000
O      26.35000000     32.77800000     11.39500000
H      31.93100000     35.53000000      6.71500000
H      29.59500000     33.63500000      7.07700000
H      31.02410000     35.15720000      8.15740000
H      31.16480000     33.00520000      6.46380000
H      30.21620000     34.23900000      5.51170000
H      27.66100000     33.67200000      8.59400000
H      26.36600000     32.46180000      8.88710000
H      25.99930000     34.19790000      9.01690000
H      28.06890000     33.84290000     11.01910000
