17
pbedef2svp=-342.49321713915 b3lypdef2svp=-342.71037004473 b3lypvdz=-342.9747020711
N      20.29100000     24.87500000      9.50700000
C      20.08100000     24.77300000      8.03300000
C      20.82200000     25.91400000      7.33200000
O      21.32300000     26.83000000      8.00800000
C      18.59900000     24.73600000      7.72700000
C      17.81900000     23.43400000      7.90000000
N      20.92400000     25.86200000      6.00600000
H      19.77500000     25.56800000     10.01100000
H      20.52200000     23.82600000      7.68800000
H      18.12100000     25.48200000      8.37800000
H      18.48300000     25.03900000      6.67600000
H      18.41700000     22.59300000      7.51900000
H      17.60000000     23.27500000      8.96600000
H      20.47700000     25.11200000      5.51900000
H      20.91950000     24.28870000     10.01810000
H      16.87690000     23.50230000      7.33620000
H      21.43000000     26.54290000      5.47650000
