17
pbedef2svp=-342.48987522934 b3lypdef2svp=-342.70775512784 b3lypvdz=-342.97163646626
N      22.24100000     31.87300000     11.24100000
C      23.21200000     32.76200000     11.89100000
C      23.50900000     32.22400000     13.29000000
O      22.54400000     31.94200000     14.03400000
N      24.79000000     32.02100000     13.61800000
C      25.14900000     31.60900000     14.98000000
C      26.31000000     30.59400000     14.96700000
H      21.34100000     31.75600000     11.66200000
H      24.14700000     32.76300000     11.31200000
H      25.50600000     32.15100000     12.93200000
H      24.28500000     31.20800000     15.53000000
H      27.23500000     31.16400000     14.79900000
H      26.34200000     30.12800000     15.96300000
H      22.44230000     31.37920000     10.39500000
H      22.85770000     33.80140000     11.95590000
H      25.54030000     32.51210000     15.47110000
H      26.29540000     29.77810000     14.22940000
