14
pbedef2svp=-303.26059869596 b3lypdef2svp=-303.45139759529 b3lypvdz=-303.68595281316
N      26.46500000     25.68900000     21.83300000
C      26.82600000     24.52100000     21.01200000
C      27.99400000     23.78100000     21.64300000
O      28.90400000     24.44400000     22.09800000
N      27.94200000     22.44800000     21.64800000
C      29.01500000     21.65700000     22.28800000
H      26.78200000     26.59400000     21.54900000
H      25.96700000     23.83400000     21.00400000
H      27.17100000     21.98000000     21.21600000
H      29.58400000     22.29400000     22.98200000
H      25.91410000     25.61040000     22.66390000
H      26.98190000     24.85930000     19.97700000
H      29.69310000     21.25390000     21.52140000
H      28.53100000     20.84640000     22.85260000
