8
pbedef2svp=-79.63854947449 b3lypdef2svp=-79.7037694346 b3lypvdz=-79.7615102787
C      30.79600000     19.08300000     10.56600000
C      31.15500000     20.51500000     10.04800000
H      31.64900000     18.41000000     10.39300000
H      30.22700000     21.08200000      9.88300000
H      31.76900000     21.02800000     10.80200000
H      29.91060000     18.72500000     10.02010000
H      30.57340000     19.14070000     11.64170000
H      31.71600000     20.45730000      9.10360000
