7
pbedef2svp=-153.52298693623 b3lypdef2svp=-153.62263798482 b3lypvdz=-153.7445627245
C      39.07600000     34.93100000     29.03100000
O      38.29700000     34.94600000     29.99600000
C      38.66800000     35.50200000     27.68000000
H      39.13700000     34.87600000     26.90700000
H      40.08790000     34.49980000     29.04260000
H      37.57780000     35.42420000     27.55620000
H      38.96580000     36.54220000     27.48190000
