11
pbedef2svp=-321.90385905286 b3lypdef2svp=-322.09656882132 b3lypvdz=-322.35307910706
C      31.40900000     32.68000000      6.44600000
O      32.61900000     32.81200000      6.12500000
N      30.88400000     31.48500000      6.66600000
C      31.67700000     30.27500000      6.63900000
C      31.02200000     29.28800000      5.66500000
O      29.80900000     29.39500000      5.54500000
H      29.90500000     31.41600000      6.85800000
H      32.72700000     30.46400000      6.36900000
H      30.74920000     33.55880000      6.49420000
H      31.59430000     29.85120000      7.65070000
H      31.70340000     28.55290000      5.21190000
