13
pbedef2svp=-174.0935917434 b3lypdef2svp=-174.21801918547 b3lypvdz=-174.34769471152
C      30.09100000     34.39300000      5.07800000
C      29.42000000     35.75600000      5.11900000
N      31.24400000     34.98600000      7.19700000
C      30.50500000     33.88400000      6.51200000
H      29.47000000     33.64700000      4.56000000
H      29.15200000     36.06400000      4.09800000
H      28.51000000     35.69800000      5.73500000
H      30.11200000     36.49200000      5.55400000
H      31.93100000     35.53000000      6.71500000
H      29.59500000     33.63500000      7.07700000
H      31.09520000     34.48230000      4.63800000
H      31.02410000     35.15720000      8.15740000
H      31.16480000     33.00520000      6.46380000
