18
pbedef2svp=-326.46352836295 b3lypdef2svp=-326.67557744842 b3lypvdz=-326.92641846277
C      31.90100000     34.91000000     22.72800000
O      32.19000000     33.69600000     22.63500000
N      32.76300000     35.83100000     23.09000000
C      34.14500000     35.47200000     23.48100000
C      35.11400000     36.56400000     22.90700000
C      35.92600000     35.97900000     21.73700000
C      35.00300000     35.08400000     20.92000000
H      32.48200000     36.79100000     23.10200000
H      34.41100000     34.50500000     23.02800000
H      34.52600000     37.42200000     22.55000000
H      35.80200000     36.89500000     23.69900000
H      36.73600000     35.36100000     22.15200000
H      35.56200000     34.65300000     20.07600000
H      34.62000000     34.27400000     21.55700000
H      34.16100000     35.67900000     20.53700000
H      30.88240000     35.23880000     22.47440000
H      34.21370000     35.38510000     24.57540000
H      36.36930000     36.78820000     21.13810000
