20
pbedef2svp=-327.66483027295 b3lypdef2svp=-327.88674074325 b3lypvdz=-328.13735930488
C      39.91900000     32.85400000     23.84000000
C      40.76000000     34.03600000     23.39400000
O      41.97500000     34.00800000     23.62400000
N      40.14000000     35.00700000     22.77500000
C      41.46100000     30.75100000     19.59400000
C      42.19500000     31.14200000     20.91300000
C      42.90400000     32.41400000     20.55300000
H      39.79500000     32.89900000     24.93200000
H      40.44000000     31.92400000     23.56800000
H      40.65400000     35.80100000     22.45000000
H      39.15200000     34.95500000     22.62700000
H      38.92460000     32.85400000     23.36960000
H      42.11200000     30.14800000     18.94400000
H      41.47600000     31.30900000     21.72900000
H      42.91200000     30.36200000     21.21000000
H      43.23600000     32.95400000     21.45200000
H      43.76900000     32.21800000     19.90300000
H      41.25790000     31.74700000     19.17360000
H      40.52370000     30.22540000     19.82890000
H      42.12220000     32.97330000     20.01830000
