13
pbedef2svp=-174.08201128852 b3lypdef2svp=-174.2065938912 b3lypvdz=-174.33670269412
C      26.92600000     18.19100000     18.89200000
C      26.62100000     17.79900000     20.35200000
C      26.01000000     16.37000000     20.28000000
N      26.97500000     15.52100000     20.94200000
H      27.14900000     19.26800000     18.86300000
H      26.03200000     17.98500000     18.28500000
H      27.54500000     17.79200000     20.94900000
H      25.90200000     18.50300000     20.79700000
H      25.04200000     16.33600000     20.80100000
H      25.87400000     16.05900000     19.23400000
H      27.21900000     15.86700000     21.84800000
H      27.77560000     17.65050000     18.44920000
H      27.45920000     14.67450000     20.72070000
