22
pbedef2svp=-328.85433269584
C      38.69300000     34.10600000     17.59500000
C      38.14600000     33.93200000     19.02700000
C      35.92600000     35.97900000     21.73700000
C      35.00300000     35.08400000     20.92000000
C      40.76000000     34.03600000     23.39400000
O      41.97500000     34.00800000     23.62400000
N      40.14000000     35.00700000     22.77500000
H      38.14400000     33.41300000     16.94100000
H      37.08200000     34.21100000     19.05000000
H      38.25700000     32.88200000     19.33700000
H      38.70900000     34.57900000     19.71600000
H      39.75750000     33.83520000     17.53530000
H      38.53620000     35.12310000     17.20650000
H      36.73600000     35.36100000     22.15200000
H      35.56200000     34.65300000     20.07600000
H      34.62000000     34.27400000     21.55700000
H      34.16100000     35.67900000     20.53700000
H      35.34590000     36.39700000     22.57290000
H      36.36930000     36.78820000     21.13810000
H      40.65400000     35.80100000     22.45000000
H      39.15200000     34.95500000     22.62700000
H      40.15040000     33.17930000     23.71730000
