8
pbedef2svp=-79.639439076 b3lypdef2svp=-79.70465392466 b3lypvdz=-79.76235575591
C      21.24200000     25.51900000     22.39100000
C      19.76200000     25.07700000     22.45500000
H      21.51100000     25.66300000     21.33400000
H      21.85900000     24.71600000     22.82000000
H      19.49400000     24.79200000     23.48300000
H      19.10600000     25.89300000     22.11700000
H      21.46660000     26.45010000     22.93200000
H      19.66900000     24.21070000     21.78350000
