8
pbedef2svp=-79.63551851394 b3lypdef2svp=-79.70081552863 b3lypvdz=-79.75840342302
C      41.60800000     31.44400000     30.98900000
C      41.89600000     30.08000000     30.45600000
H      42.35500000     31.68200000     31.76000000
H      40.60500000     31.43800000     31.44000000
H      41.30800000     29.34500000     31.02600000
H      41.60100000     30.04400000     29.39700000
H      41.63910000     32.22830000     30.21840000
H      42.96180000     29.82010000     30.53660000
