19
pbedef2svp=-198.50582035296
C      28.76200000     29.57300000     19.90600000
C      29.15100000     28.65500000     18.75500000
C      27.04300000     24.99200000     19.57100000
C      25.93100000     25.84400000     18.95900000
C      26.20300000     26.08300000     17.47100000
H      28.81600000     30.60900000     19.54100000
H      29.23500000     27.64100000     19.17300000
H      28.32300000     28.68600000     18.03100000
H      29.45240000     29.47150000     20.75640000
H      27.72920000     29.38820000     20.23650000
H      30.07520000     28.84280000     18.18880000
H      27.96900000     25.58500000     19.54900000
H      27.16400000     24.09800000     18.94200000
H      25.90600000     26.81600000     19.47400000
H      25.39600000     26.69700000     17.04400000
H      27.16300000     26.60700000     17.35300000
H      26.24600000     25.11700000     16.94600000
H      26.88710000     24.65370000     20.60600000
H      24.94360000     25.36710000     19.04650000
