12
pbedef2svp=-247.97727832732 b3lypdef2svp=-248.13635260475 b3lypvdz=-248.33039955909
N      32.76300000     35.83100000     23.09000000
C      34.14500000     35.47200000     23.48100000
C      34.23900000     35.35300000     24.97900000
O      33.70700000     36.19700000     25.72800000
C      35.11400000     36.56400000     22.90700000
H      32.48200000     36.79100000     23.10200000
H      34.41100000     34.50500000     23.02800000
H      34.52600000     37.42200000     22.55000000
H      35.80200000     36.89500000     23.69900000
H      32.10620000     35.12920000     22.81420000
H      34.83270000     34.52050000     25.38450000
H      35.69410000     36.14600000     22.07110000
