5
pbedef2svp=-40.41354148808 b3lypdef2svp=-40.45037722038 b3lypvdz=-40.47892416549
C      38.81700000     28.02000000     19.88900000
H      38.00200000     28.46900000     19.30300000
H      39.74510000     28.57150000     19.67830000
H      38.52760000     28.04050000     20.95010000
H      39.01380000     27.01710000     19.48230000
