17
pbedef2svp=-288.4411095878 b3lypdef2svp=-288.6362770366 b3lypvdz=-288.85741518436
N      30.13200000     40.06900000     18.64200000
C      29.66400000     39.83900000     17.43400000
O      28.85000000     40.56500000     16.85900000
C      25.88400000     39.13900000     14.61500000
C      24.34800000     39.29600000     14.64200000
C      26.21900000     37.68400000     14.30700000
H      30.85500000     39.48300000     19.00900000
H      29.77730000     40.81960000     19.19940000
H      30.06730000     38.97920000     16.87900000
H      26.30200000     39.41600000     15.59400000
H      26.30900000     39.79000000     13.83700000
H      23.94200000     38.86500000     13.71500000
H      23.96100000     38.73700000     15.50600000
H      25.70800000     37.42000000     13.36900000
H      25.81700000     37.07300000     15.12800000
H      23.99620000     40.33530000     14.71990000
H      27.27980000     37.41810000     14.18880000
