21
pbedef2svp=-348.64441972857
O      33.77800000     18.73900000     14.51600000
C      32.49200000     18.19300000     14.99500000
C      30.52000000     22.30000000     17.76400000
C      29.00600000     22.04300000     17.44200000
C      32.26200000     20.67000000     20.51400000
C      32.12800000     19.36400000     19.75000000
O      32.54600000     19.31700000     18.55800000
H      34.49400000     18.25400000     14.90900000
H      32.40300000     18.31600000     16.08500000
H      31.72450000     18.80410000     14.49760000
H      32.39220000     17.12890000     14.73480000
H      30.88200000     21.52100000     18.45100000
H      28.90200000     21.00100000     17.10700000
H      28.43100000     22.19000000     18.36800000
H      31.06370000     22.22990000     16.81040000
H      30.74120000     23.29180000     18.18510000
H      28.57490000     22.69440000     16.66750000
H      32.31500000     21.45700000     19.74700000
H      31.48610000     20.98670000     21.22650000
H      33.23390000     20.70250000     21.02820000
H      31.76700000     18.48210000     20.29940000
