16
pbedef2svp=-271.2015092926 b3lypdef2svp=-271.38423129249 b3lypvdz=-271.5936304793
C      28.60500000     33.96500000     12.50300000
C      28.63800000     35.46100000     12.90000000
O      29.52200000     36.10300000     12.32000000
C      29.96300000     33.31700000     12.81400000
C      30.21100000     33.39400000     14.30400000
C      29.95700000     31.83800000     12.35200000
H      27.82500000     33.46000000     13.09200000
H      30.75600000     33.85900000     12.27900000
H      31.18200000     32.93300000     14.53900000
H      30.22000000     34.44800000     14.62000000
H      29.41200000     32.85800000     14.83700000
H      30.93100000     31.37900000     12.57700000
H      29.16300000     31.29200000     12.88200000
H      29.77200000     31.79300000     11.26900000
H      28.34310000     33.94830000     11.43480000
H      27.88010000     35.80790000     13.61780000
