17
pbedef2svp=-288.43048052779
C      30.09100000     34.39300000      5.07800000
C      30.50500000     33.88400000      6.51200000
N      26.21400000     32.09700000      8.77100000
C      26.77200000     33.43600000      9.19700000
C      26.88200000     31.42800000      7.86200000
O      27.90600000     31.71100000      7.26400000
H      29.47000000     33.64700000      4.56000000
H      29.59500000     33.63500000      7.07700000
H      31.09520000     34.48230000      4.63800000
H      29.60530000     35.37950000      5.10770000
H      31.04940000     34.69580000      7.01660000
H      31.16480000     33.00520000      6.46380000
H      25.36900000     31.73600000      9.16600000
H      27.66100000     33.67200000      8.59400000
H      27.04930000     33.38190000     10.26010000
H      25.99930000     34.19790000      9.01690000
H      26.42530000     30.46100000      7.60440000
