17
pbedef2svp=-342.49705268965 b3lypdef2svp=-342.7151580709 b3lypvdz=-342.97905621297
N      19.17200000     29.80800000     21.24300000
C      19.39900000     29.89400000     22.65500000
C      20.08300000     28.72900000     23.32100000
O      19.99100000     28.58400000     24.56100000
N      20.80100000     27.93100000     22.57800000
C      21.55000000     26.79600000     23.13300000
C      21.24200000     25.51900000     22.39100000
H      19.62500000     30.50400000     20.68600000
H      20.01700000     30.78600000     22.83600000
H      18.42000000     30.02200000     23.13900000
H      20.84300000     28.09900000     21.59300000
H      21.34400000     26.67500000     24.20700000
H      21.51100000     25.66300000     21.33400000
H      21.85900000     24.71600000     22.82000000
H      18.61950000     29.14180000     20.74200000
H      22.61870000     27.00390000     22.97580000
H      20.18890000     25.20450000     22.43650000
