8
pbedef2svp=-79.63830092446 b3lypdef2svp=-79.70344054076 b3lypvdz=-79.76108513861
C      26.82600000     24.52100000     21.01200000
C      27.04300000     24.99200000     19.57100000
H      25.96700000     23.83400000     21.00400000
H      27.96900000     25.58500000     19.54900000
H      27.16400000     24.09800000     18.94200000
H      26.55630000     25.39350000     21.62530000
H      27.67130000     23.98540000     21.46870000
H      26.24290000     25.60510000     19.13060000
