16
pbedef2svp=-159.27912767187 b3lypdef2svp=-159.40867467845 b3lypvdz=-159.52407294635
C      27.42600000     22.61600000     11.90200000
C      27.38000000     23.72100000     12.95500000
C      24.12300000     24.98100000     14.19500000
C      22.66200000     24.81900000     13.69900000
H      28.23400000     21.90500000     12.13000000
H      28.35200000     24.23400000     12.99200000
H      26.59400000     24.44400000     12.69300000
H      27.16100000     23.28100000     13.93900000
H      26.46010000     22.09200000     11.85230000
H      27.63490000     23.13470000     10.95470000
H      24.12300000     25.19500000     15.27400000
H      24.68000000     24.05100000     14.00600000
H      24.60300000     25.81200000     13.65700000
H      22.10700000     25.74900000     13.89000000
H      22.18400000     23.98900000     14.23900000
H      22.65350000     24.60490000     12.62010000
