10
pbedef2svp=-192.7485905672 b3lypdef2svp=-192.87619268132 b3lypvdz=-193.02709092033
C      31.42200000     43.94000000     17.55300000
C      30.75500000     44.35100000     16.27700000
O      31.20700000     45.26800000     15.56600000
C      32.97900000     43.91800000     17.44500000
H      31.15100000     44.66200000     18.33700000
H      33.35300000     44.93600000     17.26300000
H      31.10650000     42.93780000     17.87880000
H      29.87810000     43.77600000     15.94460000
H      33.12510000     43.28030000     16.56070000
H      33.46820000     43.48580000     18.33040000
