18
pbedef2svp=-326.4409256078 b3lypdef2svp=-326.65502557527 b3lypvdz=-326.9072504785
N      37.63300000     26.54300000     11.86700000
C      37.47100000     27.39100000     10.66800000
C      37.44100000     28.88200000     11.05200000
O      38.02000000     29.77200000     10.38200000
C      36.19300000     27.05800000      9.91100000
C      36.15300000     25.62000000      9.40900000
C      34.75800000     25.28000000      8.90000000
H      36.89700000     25.91700000     12.12400000
H      38.32600000     27.22700000      9.99500000
H      35.33700000     27.21800000     10.58200000
H      36.11200000     27.73300000      9.04600000
H      36.87800000     25.50100000      8.59000000
H      36.41500000     24.94000000     10.23300000
H      34.16900000     24.86400000      9.73100000
H      34.27900000     26.20100000      8.53600000
H      38.45960000     26.57920000     12.42860000
H      36.92150000     29.11950000     11.99210000
H      34.78330000     24.54580000      8.08130000
