15
pbedef2svp=-378.33854912015 b3lypdef2svp=-378.57238566329 b3lypvdz=-378.87258207699
O      32.57600000     25.80200000      5.46100000
N      30.31000000     25.45800000      5.38400000
C      31.44000000     26.07900000      5.08000000
N      27.34000000     24.43000000      2.61400000
C      26.26600000     25.41300000      2.84200000
C      26.91300000     26.63900000      3.53100000
O      27.88600000     26.46300000      4.26300000
H      29.44600000     25.83300000      5.04800000
H      30.29490000     24.62620000      5.93880000
H      31.28000000     26.99650000      4.49470000
H      26.96100000     23.61900000      2.16800000
H      28.04300000     24.83400000      2.02900000
H      25.88000000     25.74300000      1.86700000
H      25.42290000     25.02360000      3.43160000
H      26.42360000     27.59660000      3.29980000
