7
pbedef2svp=-95.64035699639 b3lypdef2svp=-95.70984627822 b3lypvdz=-95.78112521739
N      22.24100000     31.87300000     11.24100000
C      23.21200000     32.76200000     11.89100000
H      21.34100000     31.75600000     11.66200000
H      24.14700000     32.76300000     11.31200000
H      22.44230000     31.37920000     10.39500000
H      23.42580000     32.37470000     12.89810000
H      22.85770000     33.80140000     11.95590000
