12
pbedef2svp=-193.92234020372
C      30.83200000     23.69900000     18.35800000
C      30.52000000     22.30000000     17.76400000
O      33.54400000     23.08600000     20.88300000
C      34.17400000     22.12900000     21.35400000
H      30.30700000     23.81600000     19.31800000
H      31.91600000     23.79500000     18.51900000
H      30.49400000     24.47800000     17.65800000
H      30.88200000     21.52100000     18.45100000
H      31.06370000     22.22990000     16.81040000
H      29.45860000     22.11980000     17.53830000
H      33.78490000     21.10330000     21.27270000
H      35.12210000     22.29880000     21.88520000
