16
pbedef2svp=-159.27429407498 b3lypdef2svp=-159.40388002292 b3lypvdz=-159.51913629508
C      24.46900000     19.33200000      7.95200000
C      24.29900000     20.13400000      6.70400000
C      22.92400000     18.58300000     12.02500000
C      23.05900000     17.32600000     11.15400000
H      24.49800000     18.25500000      7.73000000
H      23.65900000     19.53700000      8.66800000
H      23.56000000     19.67000000      6.03400000
H      23.98900000     21.16400000      6.93600000
H      25.43740000     19.68300000      8.33790000
H      25.30350000     20.11550000      6.25610000
H      22.28300000     19.29200000     11.48000000
H      22.06600000     16.87100000     11.02100000
H      23.46700000     17.60900000     10.17200000
H      23.89930000     19.06470000     12.18880000
H      22.41860000     18.33650000     12.97040000
H      23.73100000     16.59430000     11.62630000
