10
pbedef2svp=-134.87840993093 b3lypdef2svp=-134.97580135319 b3lypvdz=-135.07788761913
C      24.34800000     39.29600000     14.64200000
C      23.86500000     40.72300000     14.74900000
N      22.37500000     40.72000000     14.90700000
H      23.94200000     38.86500000     13.71500000
H      23.96100000     38.73700000     15.50600000
H      24.32800000     41.20500000     15.62300000
H      24.13900000     41.27500000     13.83800000
H      22.04500000     41.66100000     14.97900000
H      21.95700000     40.28000000     14.11300000
H      25.44210000     39.18420000     14.62280000
