16
pbedef2svp=-213.27736463706 b3lypdef2svp=-213.43521998228 b3lypvdz=-213.59545362257
C      21.32500000     28.81300000     15.00500000
C      20.36900000     28.64800000     14.00100000
C      21.63700000     28.92300000     10.35300000
N      21.67400000     30.03400000      8.19100000
C      21.41900000     30.25300000      9.62000000
H      21.97400000     29.67600000     14.99200000
H      20.22700000     29.39700000     13.23600000
H      21.42110000     28.06910000     15.80960000
H      19.76570000     27.72830000     14.01650000
H      22.57800000     28.46500000     10.01500000
H      21.68500000     29.10200000     11.43700000
H      22.02400000     29.14200000      7.90400000
H      20.41000000     30.65000000      9.80700000
H      20.79700000     28.24970000     10.12700000
H      21.51690000     30.72820000      7.48850000
H      22.19030000     30.94610000      9.98680000
