14
pbedef2svp=-361.13745369181 b3lypdef2svp=-361.35735914531 b3lypvdz=-361.64260469889
C      21.12700000     28.24000000      5.57400000
O      19.95800000     28.46500000      5.84200000
N      22.09900000     29.16300000      5.60500000
C      21.90700000     30.56300000      5.88100000
C      21.46600000     30.95300000      7.26100000
O      21.06600000     32.11200000      7.53300000
C      21.02300000     31.22300000      4.78400000
H      23.03200000     28.85400000      5.42200000
H      22.89500000     31.02900000      5.75500000
H      20.13500000     30.60100000      4.60000000
H      20.70800000     32.22400000      5.11400000
H      21.50810000     27.23660000      5.33340000
H      21.63880000     30.18940000      8.03370000
H      21.61400000     31.30690000      3.86010000
