15
pbedef2svp=-378.32751263641
C      35.23800000     23.38200000     12.92000000
O      36.06600000     24.10900000     12.33300000
N      37.49900000     25.74300000     14.57100000
C      38.79400000     25.76100000     13.88000000
C      38.72800000     26.59100000     12.61100000
O      39.70400000     27.34600000     12.27700000
N      37.63300000     26.54300000     11.86700000
H      35.49140000     22.34750000     13.19500000
H      34.21620000     23.68330000     13.19390000
H      36.99800000     24.88000000     14.63700000
H      39.53500000     26.22600000     14.54600000
H      36.89700000     25.91700000     12.12400000
H      37.10120000     26.56530000     14.97800000
H      39.14480000     24.74290000     13.65570000
H      37.52340000     27.11700000     11.05550000
