15
pbedef2svp=-287.20572942304 b3lypdef2svp=-287.39116113026 b3lypvdz=-287.61440314686
N      20.71700000     22.96400000     12.26000000
C      21.18400000     24.26300000     11.69000000
C      21.11000000     24.11100000     10.17300000
O      21.84100000     23.19800000      9.68600000
C      22.65000000     24.51600000     12.17200000
C      22.66200000     24.81900000     13.69900000
H      21.38500000     22.24600000     12.45600000
H      20.53700000     25.08800000     12.02200000
H      23.21600000     23.58600000     12.01300000
H      22.10700000     25.74900000     13.89000000
H      22.18400000     23.98900000     14.23900000
H      19.74930000     22.79780000     12.44970000
H      20.41860000     24.75590000      9.61080000
H      23.16720000     25.32030000     11.62840000
H      23.69790000     24.93390000     14.05070000
