18
pbedef2svp=-326.48814402144 b3lypdef2svp=-326.70143316775 b3lypvdz=-326.95239535873
C      39.06300000     28.06300000     23.69500000
C      38.36500000     29.33500000     24.15900000
O      37.68400000     29.39000000     25.22100000
N      38.41900000     30.37300000     23.34100000
C      37.73800000     31.63700000     23.71200000
C      38.52800000     32.85400000     23.18200000
C      39.91900000     32.85400000     23.84000000
H      38.35200000     27.23900000     23.85600000
H      38.91700000     30.30600000     22.47600000
H      37.65300000     31.71100000     24.80600000
H      38.63400000     32.78100000     22.09000000
H      37.99600000     33.78200000     23.43800000
H      39.79500000     32.89900000     24.93200000
H      40.44000000     31.92400000     23.56800000
H      39.29290000     28.08300000     22.61950000
H      39.97620000     27.79770000     24.24780000
H      36.73540000     31.71200000     23.26570000
H      40.52860000     33.71070000     23.51670000
