15
pbedef2svp=-287.26123058897 b3lypdef2svp=-287.44685721263 b3lypvdz=-287.66851982118
C      26.85000000     29.02100000      3.89800000
C      26.10000000     29.25300000      5.20200000
O      24.86500000     29.02400000      5.33000000
C      26.73300000     30.14800000      2.90500000
C      26.88200000     31.54600000      3.40900000
N      26.84900000     29.65600000      6.21700000
H      27.91400000     28.87800000      4.13600000
H      27.50800000     29.99200000      2.14000000
H      25.73900000     30.07200000      2.44000000
H      26.08500000     31.75000000      4.13900000
H      27.86200000     31.64800000      3.89800000
H      27.84300000     29.68800000      6.11500000
H      26.47150000     28.10150000      3.42760000
H      26.81290000     32.27680000      2.58970000
H      26.43290000     29.92850000      7.08450000
