17
pbedef2svp=-342.47098650407 b3lypdef2svp=-342.68775432978 b3lypvdz=-342.9524979919
C      40.08200000     26.90400000     18.19800000
C      41.03500000     27.90900000     18.87900000
N      41.18900000     32.08500000     19.03100000
C      41.46100000     30.75100000     19.59400000
C      40.16800000     30.02600000     19.91800000
O      39.26400000     30.66200000     20.52100000
N      40.05900000     28.75800000     19.60700000
H      40.61100000     25.98900000     17.89400000
H      39.58500000     27.34800000     17.32300000
H      41.73000000     27.40700000     19.56800000
H      41.60700000     28.49000000     18.14100000
H      42.11200000     30.14800000     18.94400000
H      39.36710000     26.70580000     19.01020000
H      40.63190000     32.23030000     18.21340000
H      41.61300000     32.82380000     19.55480000
H      41.97880000     31.02680000     20.52450000
H      39.21520000     28.25660000     19.79860000
