15
pbedef2svp=-378.37728633483 b3lypdef2svp=-378.60755730318 b3lypvdz=-378.90628065792
N      28.52500000     34.44700000     18.18900000
C      27.47500000     33.65100000     18.30400000
O      27.50700000     32.58700000     18.95800000
N      29.69400000     29.43600000     21.05400000
C      31.20000000     30.32900000     22.78000000
C      30.21000000     30.50900000     21.65000000
O      29.97800000     31.72600000     21.26900000
H      28.44200000     35.28300000     17.64600000
H      29.39950000     34.24000000     18.62760000
H      26.54180000     33.99370000     17.83310000
H      29.93800000     28.52400000     21.38400000
H      31.35500000     29.25000000     22.92500000
H      29.06640000     29.52830000     20.28090000
H      32.13930000     30.76110000     22.40440000
H      30.94270000     30.76780000     23.75530000
