18
pbedef2svp=-400.55200236694
C      31.74400000     38.87900000     16.29900000
O      31.73700000     40.25700000     15.82400000
O      33.17400000     43.06700000     16.26500000
C      32.97900000     43.91800000     17.44500000
C      29.60400000     43.50700000     13.39300000
O      29.21900000     43.98100000     12.30100000
N      30.56300000     42.62300000     13.49500000
H      32.36600000     38.76400000     17.19900000
H      32.61800000     40.51000000     15.57300000
H      30.68610000     38.71460000     16.55180000
H      32.11290000     38.22830000     15.49250000
H      34.10300000     42.97400000     16.09100000
H      33.35300000     44.93600000     17.26300000
H      31.88170000     43.93350000     17.52110000
H      33.46820000     43.48580000     18.33040000
H      30.87700000     42.35700000     14.40600000
H      29.14480000     43.83930000     14.33570000
H      30.99400000     42.20360000     12.69610000
