16
pbedef2svp=-159.27150733298 b3lypdef2svp=-159.40055919656 b3lypvdz=-159.51602855596
C      31.28800000     22.20100000     16.41700000
C      30.52000000     22.30000000     17.76400000
C      32.26200000     20.67000000     20.51400000
C      33.63800000     20.71600000     21.24200000
H      30.85300000     22.93800000     15.72600000
H      30.88200000     21.52100000     18.45100000
H      31.15610000     21.19280000     15.99730000
H      32.35780000     22.42960000     16.53200000
H      29.45860000     22.11980000     17.53830000
H      30.74120000     23.29180000     18.18510000
H      32.31500000     21.45700000     19.74700000
H      33.51900000     20.30000000     22.25300000
H      34.35900000     20.10600000     20.67800000
H      31.48610000     20.98670000     21.22650000
H      32.16500000     19.72420000     19.96070000
H      34.02710000     21.74170000     21.32330000
