18
pbedef2svp=-363.49868244496
C      30.52000000     22.30000000     17.76400000
C      29.00600000     22.04300000     17.44200000
C      29.94200000     21.10600000     21.24000000
O      29.47000000     20.67700000     20.19000000
C      30.32000000     16.69800000     19.05100000
O      30.19800000     15.65700000     18.36600000
N      29.34000000     17.59400000     19.07600000
H      30.88200000     21.52100000     18.45100000
H      28.90200000     21.00100000     17.10700000
H      28.43100000     22.19000000     18.36800000
H      31.06370000     22.22990000     16.81040000
H      30.74120000     23.29180000     18.18510000
H      28.57490000     22.69440000     16.66750000
H      29.26390000     21.50910000     22.00660000
H      31.02640000     21.09260000     21.42400000
H      29.44000000     18.40200000     19.65700000
H      31.24010000     16.89260000     19.62160000
H      28.50590000     17.48910000     18.53440000
