16
pbedef2svp=-213.300228245 b3lypdef2svp=-213.45162087412 b3lypvdz=-213.61048184067
C      35.16100000     34.17400000     26.89600000
C      34.71700000     32.76000000     27.28600000
C      35.75200000     32.05400000     28.16000000
C      35.61200000     30.57700000     28.04400000
N      35.04000000     30.25200000     26.73000000
H      34.63100000     34.92600000     27.50000000
H      33.77000000     32.82600000     27.84100000
H      34.56500000     32.17100000     26.37000000
H      36.76100000     32.34900000     27.83600000
H      35.60300000     32.35000000     29.20900000
H      36.60000000     30.10400000     28.14300000
H      34.94700000     30.20600000     28.83800000
H      35.16400000     30.85000000     25.93800000
H      34.98910000     34.33030000     25.82080000
H      36.24860000     34.26190000     27.03500000
H      34.51960000     29.40020000     26.67070000
