13
pbedef2svp=-377.19233509917 b3lypdef2svp=-377.41539479037 b3lypvdz=-377.71329842967
C      30.95500000     35.21100000      8.45900000
O      30.02500000     34.61800000      9.04000000
N      31.24400000     34.98600000      7.19700000
C      30.49400000     38.26100000      9.72900000
O      30.84900000     38.85000000      8.70600000
N      30.79500000     37.01500000     10.09500000
C      31.72000000     36.28900000      9.17600000
H      31.93100000     35.53000000      6.71500000
H      30.42700000     36.59700000     10.92600000
H      32.03600000     37.01200000      8.41000000
H      30.74910000     34.24800000      6.73830000
H      29.80890000     38.80720000     10.39400000
H      32.63200000     35.99860000      9.71820000
