15
pbedef2svp=-324.21089571937
C      20.83500000     28.62900000     18.90400000
O      20.82100000     27.73400000     19.74900000
C      23.04600000     27.08700000     22.91300000
O      23.38300000     27.62700000     21.87000000
C      18.79100000     24.22100000     20.31300000
N      17.44000000     24.65500000     20.82700000
H      21.75670000     28.93810000     18.38930000
H      19.97480000     29.25760000     18.63040000
H      21.97730000     26.87910000     23.07020000
H      23.74860000     26.78370000     23.70320000
H      19.25900000     25.03600000     19.74100000
H      18.68500000     23.33500000     19.66900000
H      16.84800000     24.88700000     20.05500000
H      17.02800000     23.91000000     21.35100000
H      19.40150000     23.97770000     21.19510000
