18
pbedef2svp=-272.39299067889
C      26.23500000     30.05800000      7.49700000
C      26.34400000     29.05000000      8.64500000
O      23.57900000     31.32100000      9.55400000
C      21.63700000     28.92300000     10.35300000
C      21.41900000     30.25300000      9.62000000
C      22.50400000     31.22800000     10.13600000
H      25.16500000     30.24200000      7.32000000
H      25.87900000     29.50700000      9.53100000
H      26.69280000     29.75830000      6.54270000
H      26.69170000     31.02500000      7.75460000
H      27.39250000     28.83400000      8.89820000
H      25.74960000     28.15870000      8.39550000
H      22.57800000     28.46500000     10.01500000
H      21.68500000     29.10200000     11.43700000
H      20.41000000     30.65000000      9.80700000
H      20.79700000     28.24970000     10.12700000
H      21.61010000     30.08890000      8.54920000
H      22.28250000     31.77120000     11.06650000
