15
pbedef2svp=-287.20875734545 b3lypdef2svp=-287.39478806737 b3lypvdz=-287.61761577034
N      30.12400000     34.53300000     21.19100000
C      30.47900000     35.36900000     22.37400000
C      31.90100000     34.91000000     22.72800000
O      32.19000000     33.69600000     22.63500000
C      29.47200000     35.18100000     23.49800000
C      28.04900000     35.45400000     23.07100000
H      29.93800000     33.55900000     21.31800000
H      30.50500000     36.43000000     22.08400000
H      29.51300000     34.11600000     23.77100000
H      27.37300000     35.30100000     23.92600000
H      27.96500000     36.49300000     22.71900000
H      27.77200000     34.76700000     22.25700000
H      30.06830000     34.92650000     20.27340000
H      32.62350000     35.68200000     23.03140000
H      29.72350000     35.74030000     24.41120000
