9
pbedef2svp=-208.75657715873 b3lypdef2svp=-208.88803144525 b3lypvdz=-209.05293944943
N      19.99300000     20.88400000     14.04900000
C      19.06500000     21.35200000     12.99900000
C      19.44200000     22.74500000     12.51000000
O      18.57100000     23.61000000     12.28900000
H      20.50600000     20.03400000     13.92400000
H      19.16200000     20.67100000     12.14100000
H      20.10630000     21.42070000     14.88520000
H      18.01610000     21.30240000     13.32660000
H      20.50640000     22.92780000     12.30130000
