9
pbedef2svp=-208.79513474809 b3lypdef2svp=-208.92567400766 b3lypvdz=-209.08895264834
N      33.54800000     21.52600000     16.95000000
C      35.03100000     21.72200000     17.06900000
C      32.77600000     22.51900000     16.57700000
O      33.23300000     23.65900000     16.38400000
H      33.14600000     20.63400000     17.15600000
H      35.24600000     22.46200000     17.85400000
H      35.45680000     22.06320000     16.11390000
H      35.48830000     20.75920000     17.34080000
H      31.70620000     22.29040000     16.46200000
