15
pbedef2svp=-287.2218683031
C      21.44700000     27.86900000     16.02600000
C      21.32500000     28.81300000     15.00500000
N      24.79000000     32.02100000     13.61800000
C      23.21200000     32.76200000     11.89100000
C      23.50900000     32.22400000     13.29000000
O      22.54400000     31.94200000     14.03400000
H      21.97400000     29.67600000     14.99200000
H      22.20570000     28.00520000     16.81080000
H      20.80830000     26.97370000     16.04730000
H      20.57180000     28.68300000     14.21400000
H      25.50600000     32.15100000     12.93200000
H      24.14700000     32.76300000     11.31200000
H      25.03460000     31.74030000     14.54610000
H      22.48450000     32.09600000     11.40400000
H      22.85770000     33.80140000     11.95590000
