15
pbedef2svp=-233.16350937867
C      26.77200000     33.43600000      9.19700000
C      25.69500000     34.49800000      8.94600000
C      30.95500000     35.21100000      8.45900000
O      30.02500000     34.61800000      9.04000000
C      31.72000000     36.28900000      9.17600000
H      27.66100000     33.67200000      8.59400000
H      24.80600000     34.23900000      9.53900000
H      26.08400000     35.47300000      9.27400000
H      26.36600000     32.46180000      8.88710000
H      27.04930000     33.38190000     10.26010000
H      25.39800000     34.57900000      7.89000000
H      32.03600000     37.01200000      8.41000000
H      31.19690000     35.02270000      7.40260000
H      31.03820000     36.82410000      9.85340000
H      32.63200000     35.99860000      9.71820000
