12
pbedef2svp=-339.15692364704 b3lypdef2svp=-339.36097094015 b3lypvdz=-339.62937883893
O      29.93000000     16.47700000     10.60600000
N      29.59900000     18.59900000      9.82800000
C      29.25800000     17.31800000      9.98400000
O      28.44900000     20.67400000      8.36000000
N      26.55900000     20.22000000      7.28800000
C      27.81900000     20.60900000      7.31600000
H      29.07000000     19.20900000      9.23800000
H      30.40390000     18.92440000     10.32420000
H      28.38130000     16.96630000      9.42040000
H      26.06040000     19.95020000      8.11180000
H      25.98970000     20.14450000      6.46940000
H      28.28810000     20.84830000      6.35030000
