11
pbedef2svp=-209.92511440166 b3lypdef2svp=-210.06642545798 b3lypvdz=-210.23218397299
O      32.57600000     25.80200000      5.46100000
C      31.44000000     26.07900000      5.08000000
N      34.91400000     24.94400000      6.44100000
C      34.79300000     24.26400000      7.76700000
H      31.28000000     26.99650000      4.49470000
H      30.50170000     25.56340000      5.33240000
H      34.93500000     24.25700000      5.71400000
H      34.13000000     25.55000000      6.30400000
H      35.65600000     23.59600000      7.90900000
H      33.86500000     23.67300000      7.78500000
H      34.76770000     24.99820000      8.58570000
