13
pbedef2svp=-228.14902689392 b3lypdef2svp=-228.29891214908 b3lypvdz=-228.47371022743
C      35.75200000     32.05400000     28.16000000
C      35.61200000     30.57700000     28.04400000
N      35.04000000     30.25200000     26.73000000
C      34.33800000     29.10300000     26.65000000
N      34.01400000     28.65700000     25.45700000
H      36.76100000     32.34900000     27.83600000
H      35.60300000     32.35000000     29.20900000
H      36.60000000     30.10400000     28.14300000
H      34.94700000     30.20600000     28.83800000
H      35.16400000     30.85000000     25.93800000
H      33.57700000     27.75900000     25.49900000
H      35.00670000     32.56240000     27.53060000
H      34.14820000     28.54850000     27.58080000
