21
pbedef2svp=-274.50413005803
C      21.02300000     31.22300000      4.78400000
C      21.90700000     30.56300000      5.88100000
C      23.81200000     34.03100000      5.67700000
C      24.62000000     34.77800000      4.85300000
C      25.69500000     34.49800000      8.94600000
C      25.28800000     34.60900000      7.49900000
C      24.14700000     33.96600000      7.03800000
H      20.13500000     30.60100000      4.60000000
H      20.70800000     32.22400000      5.11400000
H      22.89500000     31.02900000      5.75500000
H      21.61400000     31.30690000      3.86010000
H      22.05370000     29.49340000      5.67010000
H      21.58370000     30.84890000      6.89280000
H      22.94800000     33.51100000      5.29000000
H      24.31900000     34.89900000      3.82300000
H      24.80600000     34.23900000      9.53900000
H      26.08400000     35.47300000      9.27400000
H      23.51900000     33.41800000      7.72500000
H      25.55390000     35.25990000      5.17790000
H      26.46770000     33.73610000      9.12610000
H      25.94760000     35.18220000      6.83090000
