25
pbedef2svp=-276.95082723929 b3lypdef2svp=-277.1620187994 b3lypvdz=-277.36497508289
C      36.35100000     33.61300000      7.83800000
C      36.32200000     32.94400000      6.47700000
C      37.22000000     32.82200000      8.82700000
C      32.99500000     35.88300000      9.93400000
C      33.30600000     34.38100000      9.84000000
C      33.10900000     36.38100000     11.43500000
C      34.53500000     34.02800000     10.72000000
H      35.32500000     33.67300000      8.23000000
H      36.76200000     34.62700000      7.73100000
H      37.34000000     32.64900000      6.18200000
H      35.67700000     32.05300000      6.51000000
H      36.84100000     31.79300000      8.91200000
H      37.19200000     33.30600000      9.81400000
H      35.91890000     33.67240000      5.75800000
H      38.25370000     32.80640000      8.45130000
H      33.82000000     36.38500000      9.40700000
H      32.43400000     33.80800000     10.18800000
H      33.52200000     34.12000000      8.79300000
H      34.05800000     36.03000000     11.86700000
H      33.08000000     37.48000000     11.46000000
H      32.26900000     35.97900000     12.02000000
H      34.74500000     32.95100000     10.64200000
H      35.41000000     34.59800000     10.37300000
H      34.32100000     34.28500000     11.76800000
H      32.08300000     36.17340000      9.39180000
