23
pbedef2svp=-312.80123130071
C      33.28000000     41.08600000     11.22700000
C      34.76200000     40.79900000     11.47000000
C      32.99500000     35.88300000      9.93400000
C      33.10900000     36.38100000     11.43500000
C      37.15600000     35.98500000     11.68800000
C      37.19200000     37.36100000     11.03300000
O      37.51900000     38.36000000     11.64500000
H      32.75600000     40.14700000     10.99400000
H      33.17300000     41.78500000     10.38400000
H      35.14400000     41.54500000     12.18200000
H      34.85000000     39.79400000     11.91000000
H      32.84840000     41.53390000     12.13420000
H      35.38800000     40.83430000     10.56620000
H      33.82000000     36.38500000      9.40700000
H      34.05800000     36.03000000     11.86700000
H      33.08000000     37.48000000     11.46000000
H      32.26900000     35.97900000     12.02000000
H      32.08300000     36.17340000      9.39180000
H      33.21760000     34.80790000      9.86670000
H      37.25300000     35.21500000     10.90800000
H      36.19400000     35.86100000     12.20700000
H      37.97230000     35.86190000     12.41500000
H      36.90210000     37.32510000      9.97250000
