12
pbedef2svp=-285.04724205642
C      26.01000000     16.37000000     20.28000000
N      26.97500000     15.52100000     20.94200000
C      24.18400000     16.01600000     16.61900000
O      25.30300000     15.89400000     17.15200000
O      23.57200000     15.10700000     15.97500000
H      25.04200000     16.33600000     20.80100000
H      25.87400000     16.05900000     19.23400000
H      27.21900000     15.86700000     21.84800000
H      26.44200000     17.38030000     20.33090000
H      27.45920000     14.67450000     20.72070000
H      24.10000000     14.31700000     15.96200000
H      23.65580000     16.97670000     16.70810000
