18
pbedef2svp=-235.27610864578 b3lypdef2svp=-235.45198097049 b3lypvdz=-235.62900957865
C      21.63700000     28.92300000     10.35300000
C      21.41900000     30.25300000      9.62000000
C      21.44700000     27.86900000     16.02600000
C      21.32500000     28.81300000     15.00500000
C      20.63800000     26.73500000     16.05300000
C      20.36900000     28.64800000     14.00100000
H      22.57800000     28.46500000     10.01500000
H      21.68500000     29.10200000     11.43700000
H      20.41000000     30.65000000      9.80700000
H      20.79700000     28.24970000     10.12700000
H      21.61010000     30.08890000      8.54920000
H      22.19030000     30.94610000      9.98680000
H      21.97400000     29.67600000     14.99200000
H      20.75100000     26.00800000     16.84400000
H      20.22700000     29.39700000     13.23600000
H      22.20570000     28.00520000     16.81080000
H      19.88410000     26.58120000     15.26690000
H      19.76570000     27.72830000     14.01650000
