16
pbedef2svp=-159.27917892161 b3lypdef2svp=-159.40857462658 b3lypvdz=-159.52374447653
C      25.64600000     31.67000000     22.42100000
C      24.63900000     31.42600000     21.28600000
C      26.17900000     34.12700000     17.65000000
C      25.21400000     34.56500000     18.78000000
H      26.63000000     31.89000000     21.98200000
H      25.30900000     32.53200000     23.01600000
H      24.67100000     32.30400000     20.62400000
H      25.73940000     30.79640000     23.08290000
H      24.91290000     30.55510000     20.67240000
H      23.60990000     31.34340000     21.66570000
H      26.36900000     34.95900000     16.95600000
H      24.95100000     33.70000000     19.40600000
H      25.69000000     35.33700000     19.40200000
H      25.76500000     33.25010000     17.13070000
H      27.11220000     33.78430000     18.12090000
H      24.31050000     34.97140000     18.30190000
