14
pbedef2svp=-361.13248452617 b3lypdef2svp=-361.35274863326 b3lypvdz=-361.638395851
C      31.92300000     20.43600000      8.75500000
O      32.49300000     19.37400000      8.45600000
C      29.25800000     17.31800000      9.98400000
O      29.93000000     16.47700000     10.60600000
N      29.59900000     18.59900000      9.82800000
C      30.79600000     19.08300000     10.56600000
C      31.15500000     20.51500000     10.04800000
H      29.07000000     19.20900000      9.23800000
H      31.64900000     18.41000000     10.39300000
H      30.22700000     21.08200000      9.88300000
H      31.76900000     21.02800000     10.80200000
H      31.84810000     21.28680000      8.06180000
H      28.38130000     16.96630000      9.42040000
H      30.57340000     19.14070000     11.64170000
