12
pbedef2svp=-339.1600171119 b3lypdef2svp=-339.36377406608 b3lypvdz=-339.63234605083
N      28.52500000     34.44700000     18.18900000
C      27.47500000     33.65100000     18.30400000
O      27.50700000     32.58700000     18.95800000
N      26.43600000     30.23200000     20.00400000
C      27.33100000     29.31700000     20.36400000
O      27.10100000     28.34600000     21.09700000
H      28.44200000     35.28300000     17.64600000
H      29.39950000     34.24000000     18.62760000
H      26.54180000     33.99370000     17.83310000
H      26.73800000     30.99700000     19.43500000
H      25.47470000     30.18950000     20.27620000
H      28.36380000     29.50180000     20.03350000
