19
pbedef2svp=-380.7099329841
C      31.74400000     38.87900000     16.29900000
O      31.73700000     40.25700000     15.82400000
N      30.56300000     42.62300000     13.49500000
C      31.19100000     42.01200000     12.33100000
N      30.99100000     42.57100000     17.99800000
C      30.07500000     42.53800000     18.98400000
O      29.58600000     43.57000000     19.48300000
H      32.36600000     38.76400000     17.19900000
H      32.61800000     40.51000000     15.57300000
H      30.68610000     38.71460000     16.55180000
H      32.11290000     38.22830000     15.49250000
H      30.87700000     42.35700000     14.40600000
H      31.04300000     42.64100000     11.44100000
H      29.83000000     43.29870000     13.41700000
H      30.66990000     41.05390000     12.18790000
H      32.26270000     41.79850000     12.45690000
H      31.36100000     41.73700000     17.58800000
H      31.27780000     43.48210000     17.70190000
H      29.73530000     41.55230000     19.33460000
