11
pbedef2svp=-321.90295169857 b3lypdef2svp=-322.09617304593 b3lypvdz=-322.35247618564
C      21.46000000     18.73700000     16.16300000
O      20.49700000     18.50600000     16.90000000
N      21.84600000     19.95400000     15.90500000
C      21.07900000     21.14900000     16.25100000
C      20.14200000     21.59000000     15.14900000
O      19.49900000     22.64500000     15.32100000
H      22.72300000     20.07900000     15.44100000
H      20.48400000     20.94600000     17.15300000
H      22.14790000     17.94780000     15.82550000
H      21.80210000     21.94330000     16.48820000
H      20.01740000     20.99970000     14.22920000
