16
pbedef2svp=-271.15825591644
C      21.44700000     27.86900000     16.02600000
C      21.32500000     28.81300000     15.00500000
C      23.21200000     32.76200000     11.89100000
C      23.50900000     32.22400000     13.29000000
O      22.54400000     31.94200000     14.03400000
C      22.69900000     34.26700000     11.98500000
H      21.97400000     29.67600000     14.99200000
H      22.20570000     28.00520000     16.81080000
H      20.80830000     26.97370000     16.04730000
H      20.57180000     28.68300000     14.21400000
H      24.14700000     32.76300000     11.31200000
H      21.74500000     34.28200000     12.53300000
H      22.48450000     32.09600000     11.40400000
H      24.56230000     32.05710000     13.55970000
H      22.54660000     34.58290000     10.94240000
H      23.43720000     34.88740000     12.51420000
