7
pbedef2svp=-153.52048173699 b3lypdef2svp=-153.61975795539 b3lypvdz=-153.7416038149
C      42.34500000     34.26900000     14.43100000
C      41.94900000     34.07600000     15.84200000
O      42.82900000     34.00000000     16.73900000
H      42.96700000     33.40700000     14.14900000
H      42.95000000     35.18700000     14.38800000
H      41.55910000     34.36380000     13.66720000
H      40.87940000     33.94510000     16.06300000
