10
pbedef2svp=-283.86127594854 b3lypdef2svp=-284.03521356848 b3lypvdz=-284.26241784702
C      28.46900000     37.47500000     15.42000000
O      28.21300000     36.75300000     16.41100000
N      28.52500000     34.44700000     18.18900000
C      27.47500000     33.65100000     18.30400000
O      27.50700000     32.58700000     18.95800000
H      27.89990000     37.35800000     14.48590000
H      29.24750000     38.25190000     15.44120000
H      28.44200000     35.28300000     17.64600000
H      29.39950000     34.24000000     18.62760000
H      26.54180000     33.99370000     17.83310000
