15
pbedef2svp=-287.25555993092 b3lypdef2svp=-287.44242315793 b3lypvdz=-287.66359424639
C      31.42200000     43.94000000     17.55300000
C      30.75500000     44.35100000     16.27700000
O      31.20700000     45.26800000     15.56600000
C      32.97900000     43.91800000     17.44500000
N      29.72100000     43.67300000     15.88500000
C      28.97800000     43.96000000     14.67800000
H      31.15100000     44.66200000     18.33700000
H      33.35300000     44.93600000     17.26300000
H      29.42000000     42.90600000     16.45100000
H      27.99600000     43.47100000     14.76400000
H      28.84100000     45.05000000     14.61900000
H      31.10650000     42.93780000     17.87880000
H      33.12510000     43.28030000     16.56070000
H      33.46820000     43.48580000     18.33040000
H      29.43720000     43.62770000     13.73530000
