6
pbedef2svp=-169.57273578963 b3lypdef2svp=-169.67529410079 b3lypvdz=-169.80943001859
C      40.76000000     34.03600000     23.39400000
O      41.97500000     34.00800000     23.62400000
N      40.14000000     35.00700000     22.77500000
H      40.65400000     35.80100000     22.45000000
H      39.15200000     34.95500000     22.62700000
H      40.15040000     33.17930000     23.71730000
