5
pbedef2svp=-40.41429776217 b3lypdef2svp=-40.45116747485 b3lypvdz=-40.47971509442
C      26.34400000     29.05000000      8.64500000
H      25.87900000     29.50700000      9.53100000
H      26.26570000     29.77390000      7.82050000
H      27.39250000     28.83400000      8.89820000
H      25.74960000     28.15870000      8.39550000
