8
pbedef2svp=-79.63745765982 b3lypdef2svp=-79.70264117611 b3lypvdz=-79.76023887944
C      26.31000000     30.59400000     14.96700000
C      26.29000000     29.48000000     13.96000000
H      27.23500000     31.16400000     14.79900000
H      26.34200000     30.12800000     15.96300000
H      26.46700000     29.91100000     12.96300000
H      25.48190000     31.31800000     14.97630000
H      27.07870000     28.73780000     14.15240000
H      25.30590000     28.98870000     13.95420000
