9
pbedef2svp=-208.79194910136 b3lypdef2svp=-208.92047321381 b3lypvdz=-209.08439865246
O      29.97800000     31.72600000     21.26900000
C      30.21000000     30.50900000     21.65000000
N      29.69400000     29.43600000     21.05400000
C      28.76200000     29.57300000     19.90600000
H      29.93800000     28.52400000     21.38400000
H      28.81600000     30.60900000     19.54100000
H      30.92970000     30.37810000     22.47150000
H      27.72920000     29.38820000     20.23650000
H      29.04300000     28.90990000     19.07460000
