12
pbedef2svp=-248.03526076564 b3lypdef2svp=-248.1938815139 b3lypvdz=-248.38630970402
C      18.44300000     29.14300000     19.08300000
C      18.45300000     28.94100000     20.59100000
O      17.86000000     27.99400000     21.12800000
C      17.86400000     27.97700000     18.34600000
N      19.17200000     29.80800000     21.24300000
H      17.83100000     30.03000000     18.86300000
H      16.84300000     27.78400000     18.70800000
H      17.83500000     28.20100000     17.27000000
H      18.48800000     27.08800000     18.51900000
H      19.62500000     30.50400000     20.68600000
H      19.46170000     29.31810000     18.70670000
H      19.33040000     29.86800000     22.22850000
