16
pbedef2svp=-362.26377502009
O      28.44900000     20.67400000      8.36000000
C      27.81900000     20.60900000      7.31600000
N      29.59900000     18.59900000      9.82800000
C      30.79600000     19.08300000     10.56600000
C      30.49100000     19.16200000     12.04000000
O      29.36700000     19.52300000     12.44100000
C      31.15500000     20.51500000     10.04800000
H      28.28810000     20.84830000      6.35030000
H      26.76820000     20.28460000      7.29260000
H      29.07000000     19.20900000      9.23800000
H      31.64900000     18.41000000     10.39300000
H      30.22700000     21.08200000      9.88300000
H      31.76900000     21.02800000     10.80200000
H      29.34350000     17.63930000      9.94490000
H      31.33860000     18.97400000     12.71540000
H      31.71600000     20.45730000      9.10360000
