5
pbedef2svp=-40.41236653159 b3lypdef2svp=-40.4491303195 b3lypvdz=-40.47767599172
C      30.09100000     34.39300000      5.07800000
H      29.47000000     33.64700000      4.56000000
H      30.37980000     34.03800000      6.07830000
H      31.09520000     34.48230000      4.63800000
H      29.60530000     35.37950000      5.10770000
