12
pbedef2svp=-248.02522966887 b3lypdef2svp=-248.18402653729 b3lypvdz=-248.37636424972
C      25.14900000     31.60900000     14.98000000
C      25.69800000     32.87600000     15.66900000
O      26.15800000     33.73000000     14.89400000
N      25.62100000     32.94500000     16.95000000
C      26.17900000     34.12700000     17.65000000
H      24.28500000     31.20800000     15.53000000
H      25.18900000     32.20800000     17.47000000
H      26.36900000     34.95900000     16.95600000
H      24.87990000     31.91780000     13.95910000
H      25.97710000     30.88500000     14.97070000
H      27.11220000     33.78430000     18.12090000
H      25.49380000     34.43800000     18.45240000
