18
pbedef2svp=-363.49689481837
C      24.24100000     20.43600000     12.85700000
O      23.26400000     20.95100000     13.32900000
C      22.65000000     24.51600000     12.17200000
C      22.66200000     24.81900000     13.69900000
C      20.14200000     21.59000000     15.14900000
O      19.49900000     22.64500000     15.32100000
N      19.99300000     20.88400000     14.04900000
H      25.21610000     20.92100000     13.01190000
H      24.24020000     19.45520000     12.35890000
H      23.21600000     23.58600000     12.01300000
H      22.10700000     25.74900000     13.89000000
H      22.18400000     23.98900000     14.23900000
H      21.61880000     24.33800000     11.83300000
H      23.16720000     25.32030000     11.62840000
H      23.69790000     24.93390000     14.05070000
H      20.50600000     20.03400000     13.92400000
H      20.82360000     21.26920000     15.95060000
H      19.36490000     21.20080000     13.33830000
