15
pbedef2svp=-287.26133323035 b3lypdef2svp=-287.66993290536 b3lypvdz=-287.66993290536
C      25.59400000     21.10900000     13.07200000
C      24.24100000     20.43600000     12.85700000
O      23.26400000     20.95100000     13.32900000
N      24.24000000     19.23300000     12.24600000
C      22.92400000     18.58300000     12.02500000
C      23.05900000     17.32600000     11.15400000
H      25.51600000     21.80500000     13.92000000
H      25.09100000     18.79700000     11.95400000
H      22.28300000     19.29200000     11.48000000
H      22.06600000     16.87100000     11.02100000
H      23.46700000     17.60900000     10.17200000
H      26.33400000     20.32790000     13.30050000
H      25.94320000     21.66420000     12.18890000
H      22.41860000     18.33650000     12.97040000
H      23.73100000     16.59430000     11.62630000
