15
pbedef2svp=-233.16491648923
C      34.50900000     26.07700000     19.36000000
C      33.20600000     26.31100000     20.12200000
C      38.81700000     28.02000000     19.88900000
C      38.42100000     28.04800000     21.34100000
O      37.21300000     28.03600000     21.70400000
H      34.78800000     25.01600000     19.43700000
H      35.30300000     26.69700000     19.80200000
H      32.92400000     27.37300000     20.07200000
H      32.40100000     25.69700000     19.69200000
H      34.38860000     26.34390000     18.29970000
H      33.38860000     26.01700000     21.16610000
H      38.00200000     28.46900000     19.30300000
H      39.74510000     28.57150000     19.67830000
H      39.01380000     27.01710000     19.48230000
H      39.22070000     28.08320000     22.09540000
