8
pbedef2svp=-79.63915230974 b3lypdef2svp=-79.70434380788 b3lypvdz=-79.76208079164
C      35.70800000     30.77600000     13.80600000
C      34.22800000     30.63000000     13.31900000
H      35.89000000     29.98800000     14.55100000
H      33.94700000     31.51600000     12.73100000
H      34.13500000     29.73000000     12.69300000
H      36.42890000     30.63080000     12.98790000
H      35.82630000     31.74690000     14.30930000
H      33.56150000     30.54100000     14.18960000
