16
pbedef2svp=-304.42325288366
C      40.76000000     34.03600000     23.39400000
O      41.97500000     34.00800000     23.62400000
N      40.14000000     35.00700000     22.77500000
N      41.18900000     32.08500000     19.03100000
C      41.46100000     30.75100000     19.59400000
C      41.82200000     33.18800000     19.81300000
H      40.65400000     35.80100000     22.45000000
H      39.15200000     34.95500000     22.62700000
H      40.15040000     33.17930000     23.71730000
H      42.11200000     30.14800000     18.94400000
H      41.10900000     33.65500000     20.50800000
H      42.25100000     33.95800000     19.15500000
H      40.63190000     32.23030000     18.21340000
H      40.52370000     30.22540000     19.82890000
H      41.97880000     31.02680000     20.52450000
H      42.60380000     32.62870000     20.34770000
