18
pbedef2svp=-326.48702554561 b3lypdef2svp=-326.70105320785 b3lypvdz=-326.95173565893
C      31.39800000     19.06400000     14.28600000
C      31.59300000     20.55300000     14.65500000
O      32.15900000     21.31100000     13.86100000
N      31.11300000     20.86300000     15.86000000
C      31.28800000     22.20100000     16.41700000
C      30.52000000     22.30000000     17.76400000
C      29.00600000     22.04300000     17.44200000
H      30.40500000     18.73500000     14.62700000
H      30.62600000     20.16900000     16.39000000
H      30.85300000     22.93800000     15.72600000
H      30.88200000     21.52100000     18.45100000
H      28.90200000     21.00100000     17.10700000
H      28.43100000     22.19000000     18.36800000
H      31.48330000     18.96650000     13.19370000
H      32.16550000     18.45290000     14.78340000
H      32.35780000     22.42960000     16.53200000
H      30.74120000     23.29180000     18.18510000
H      28.57490000     22.69440000     16.66750000
