17
pbedef2svp=-342.48670708686 b3lypdef2svp=-342.70436018362 b3lypvdz=-342.96881171874
C      38.81700000     28.02000000     19.88900000
C      38.42100000     28.04800000     21.34100000
O      37.21300000     28.03600000     21.70400000
N      39.37400000     28.09000000     22.24000000
C      39.06300000     28.06300000     23.69500000
C      40.34000000     27.69200000     24.46800000
N      40.05900000     28.75800000     19.60700000
H      38.00200000     28.46900000     19.30300000
H      40.32700000     28.14100000     21.94300000
H      38.35200000     27.23900000     23.85600000
H      40.25700000     26.64900000     24.80900000
H      41.20300000     27.79000000     23.79400000
H      39.01380000     27.01710000     19.48230000
H      38.55900000     28.98150000     24.03010000
H      40.49880000     28.33940000     25.34300000
H      40.14220000     29.72580000     19.84440000
H      40.71650000     28.18600000     19.11660000
