5
pbedef2svp=-40.4132379143 b3lypdef2svp=-40.45005092772 b3lypvdz=-40.47859732483
C      41.46100000     30.75100000     19.59400000
H      42.11200000     30.14800000     18.94400000
H      41.25790000     31.74700000     19.17360000
H      40.52370000     30.22540000     19.82890000
H      41.97880000     31.02680000     20.52450000
