21
pbedef2svp=-274.50027791974
C      21.02300000     31.22300000      4.78400000
C      21.86100000     31.34200000      3.47400000
C      26.13600000     35.34600000      6.64000000
C      23.81200000     34.03100000      5.67700000
C      25.69500000     34.49800000      8.94600000
C      25.28800000     34.60900000      7.49900000
C      24.14700000     33.96600000      7.03800000
H      20.13500000     30.60100000      4.60000000
H      20.70800000     32.22400000      5.11400000
H      22.03900000     32.40600000      3.26000000
H      22.82400000     30.83100000      3.61900000
H      21.64800000     30.75640000      5.55960000
H      21.34160000     30.88810000      2.61710000
H      27.00600000     35.85800000      7.02300000
H      22.94800000     33.51100000      5.29000000
H      24.80600000     34.23900000      9.53900000
H      26.08400000     35.47300000      9.27400000
H      23.51900000     33.41800000      7.72500000
H      25.88200000     35.38180000      5.57030000
H      24.45850000     34.62870000      5.01770000
H      26.46770000     33.73610000      9.12610000
