8
pbedef2svp=-79.63032406128 b3lypdef2svp=-79.69543008644 b3lypvdz=-79.75297684922
C      38.61500000     32.80100000      8.32000000
C      37.22000000     32.82200000      8.82700000
H      38.67800000     33.59500000      7.56100000
H      38.75200000     31.82100000      7.83900000
H      36.84100000     31.79300000      8.91200000
H      37.19200000     33.30600000      9.81400000
H      39.48140000     32.94120000      8.98310000
H      36.59760000     33.38850000      8.11870000
