5
pbedef2svp=-94.41467018265 b3lypdef2svp=-94.47810058159 b3lypvdz=-94.5537397465
C      22.82400000     34.51400000     17.78200000
N      22.04500000     35.45500000     17.17300000
H      22.56500000     33.48000000     17.95500000
H      23.76530000     35.00910000     18.06260000
H      22.51780000     36.33590000     17.19330000
