15
pbedef2svp=-287.20649899668 b3lypdef2svp=-287.39405413569 b3lypvdz=-287.61681700822
N      20.29100000     24.87500000      9.50700000
C      20.08100000     24.77300000      8.03300000
C      18.59900000     24.73600000      7.72700000
C      17.81900000     23.43400000      7.90000000
C      16.50900000     23.52900000      7.11600000
O      15.44600000     22.98000000      7.43300000
H      19.77500000     25.56800000     10.01100000
H      20.52200000     23.82600000      7.68800000
H      18.12100000     25.48200000      8.37800000
H      18.48300000     25.03900000      6.67600000
H      18.41700000     22.59300000      7.51900000
H      17.60000000     23.27500000      8.96600000
H      20.91950000     24.28870000     10.01810000
H      20.61360000     25.59310000      7.52920000
H      16.53350000     24.15370000      6.21090000
