19
pbedef2svp=-343.63062278004
C      36.33400000     31.74200000     23.08700000
O      35.57400000     32.61800000     23.48300000
C      30.84700000     30.93100000     24.11800000
C      29.41200000     30.79600000     24.59800000
N      35.04000000     30.25200000     26.73000000
C      34.33800000     29.10300000     26.65000000
N      34.01400000     28.65700000     25.45700000
H      37.33660000     31.66700000     23.53330000
H      36.05440000     31.00370000     22.32100000
H      31.49100000     30.45600000     24.87200000
H      31.07600000     32.00600000     24.06500000
H      28.75300000     31.37500000     23.93500000
H      29.12000000     29.73600000     24.57000000
H      31.10430000     30.49220000     23.14270000
H      29.30970000     31.17180000     25.62670000
H      35.16400000     30.85000000     25.93800000
H      33.57700000     27.75900000     25.49900000
H      35.42930000     30.47320000     27.62420000
H      34.14820000     28.54850000     27.58080000
