11
pbedef2svp=-209.91852911899
N      31.11300000     20.86300000     15.86000000
C      31.28800000     22.20100000     16.41700000
C      32.12800000     19.36400000     19.75000000
O      32.54600000     19.31700000     18.55800000
H      30.62600000     20.16900000     16.39000000
H      30.85300000     22.93800000     15.72600000
H      31.47290000     20.63050000     14.95640000
H      32.35780000     22.42960000     16.53200000
H      30.74430000     22.27110000     17.37060000
H      32.22500000     20.30980000     20.30330000
H      31.76700000     18.48210000     20.29940000
