13
pbedef2svp=-377.19294918447 b3lypdef2svp=-377.41588229229 b3lypvdz=-377.71354786631
C      31.59300000     20.55300000     14.65500000
O      32.15900000     21.31100000     13.86100000
N      31.11300000     20.86300000     15.86000000
C      31.28800000     22.20100000     16.41700000
C      32.77600000     22.51900000     16.57700000
O      33.23300000     23.65900000     16.38400000
N      33.54800000     21.52600000     16.95000000
H      30.62600000     20.16900000     16.39000000
H      30.85300000     22.93800000     15.72600000
H      33.14600000     20.63400000     17.15600000
H      31.45430000     19.49380000     14.39250000
H      30.74430000     22.27110000     17.37060000
H      34.53630000     21.65660000     17.02930000
