14
pbedef2svp=-361.14431368069 b3lypdef2svp=-361.36491233448 b3lypvdz=-361.65049894587
C      31.39800000     19.06400000     14.28600000
C      31.59300000     20.55300000     14.65500000
O      32.15900000     21.31100000     13.86100000
N      31.11300000     20.86300000     15.86000000
C      31.28800000     22.20100000     16.41700000
C      32.77600000     22.51900000     16.57700000
O      33.23300000     23.65900000     16.38400000
H      30.40500000     18.73500000     14.62700000
H      30.62600000     20.16900000     16.39000000
H      30.85300000     22.93800000     15.72600000
H      31.48330000     18.96650000     13.19370000
H      32.16550000     18.45290000     14.78340000
H      30.74430000     22.27110000     17.37060000
H      33.42330000     21.68640000     16.88970000
