23
pbedef2svp=-312.78112809521
C      30.52000000     22.30000000     17.76400000
C      29.00600000     22.04300000     17.44200000
C      29.94200000     21.10600000     21.24000000
O      29.47000000     20.67700000     20.19000000
C      26.92600000     18.19100000     18.89200000
C      26.62100000     17.79900000     20.35200000
C      26.01000000     16.37000000     20.28000000
H      30.88200000     21.52100000     18.45100000
H      28.90200000     21.00100000     17.10700000
H      28.43100000     22.19000000     18.36800000
H      31.06370000     22.22990000     16.81040000
H      30.74120000     23.29180000     18.18510000
H      28.57490000     22.69440000     16.66750000
H      29.26390000     21.50910000     22.00660000
H      31.02640000     21.09260000     21.42400000
H      27.14900000     19.26800000     18.86300000
H      26.03200000     17.98500000     18.28500000
H      27.54500000     17.79200000     20.94900000
H      25.90200000     18.50300000     20.79700000
H      25.04200000     16.33600000     20.80100000
H      25.87400000     16.05900000     19.23400000
H      27.77560000     17.65050000     18.44920000
H      26.74420000     15.72400000     20.78370000
