7
pbedef2svp=-95.64103604839 b3lypdef2svp=-95.71052862054 b3lypvdz=-95.78174243996
N      26.43600000     30.23200000     20.00400000
C      25.03400000     30.17000000     20.40100000
H      26.73800000     30.99700000     19.43500000
H      24.85900000     29.26400000     21.00000000
H      27.10910000     29.54380000     20.27480000
H      24.36060000     30.15480000     19.53130000
H      24.76010000     31.04090000     21.01460000
