14
pbedef2svp=-361.14207377686 b3lypdef2svp=-361.36297449351 b3lypvdz=-361.64859647314
C      39.07600000     34.93100000     29.03100000
O      38.29700000     34.94600000     29.99600000
N      40.29400000     34.41200000     29.04500000
C      40.87300000     33.80200000     30.25300000
C      41.76500000     34.82900000     30.94400000
O      42.94500000     34.99400000     30.58300000
C      38.66800000     35.50200000     27.68000000
H      40.83900000     34.43500000     28.20700000
H      40.05800000     33.53600000     30.94300000
H      39.13700000     34.87600000     26.90700000
H      41.43310000     32.88560000     30.01540000
H      41.26790000     35.41060000     31.73440000
H      37.57780000     35.42420000     27.55620000
H      38.96580000     36.54220000     27.48190000
