14
pbedef2svp=-303.27006616346 b3lypdef2svp=-303.4593276716 b3lypvdz=-303.69480062428
N      26.55900000     20.22000000      7.28800000
C      25.82900000     19.82500000      8.49400000
C      26.54100000     18.73200000      9.25100000
O      26.33300000     18.53600000     10.45700000
C      24.46900000     19.33200000      7.95200000
N      27.36100000     17.95900000      8.55900000
H      25.66900000     20.69300000      9.15000000
H      24.49800000     18.25500000      7.73000000
H      23.65900000     19.53700000      8.66800000
H      27.51100000     18.13900000      7.58700000
H      27.51430000     20.51490000      7.30920000
H      25.98970000     20.14450000      6.46940000
H      24.34380000     19.92280000      7.03260000
H      27.83170000     17.19550000      9.00120000
