15
pbedef2svp=-233.15120615418
C      31.59300000     20.55300000     14.65500000
O      32.15900000     21.31100000     13.86100000
C      31.68400000     26.74900000     13.34200000
C      31.15200000     24.42100000     12.47700000
C      32.06000000     25.25700000     13.36400000
H      31.45430000     19.49380000     14.39250000
H      31.19710000     20.80870000     15.64890000
H      30.62600000     26.86500000     13.61900000
H      32.31300000     27.29600000     14.06000000
H      31.84500000     27.15300000     12.33100000
H      30.10600000     24.56300000     12.78500000
H      31.27200000     24.73600000     11.43000000
H      31.42200000     23.35900000     12.57400000
H      31.94400000     24.89900000     14.39800000
H      33.11820000     25.14210000     13.08670000
