18
pbedef2svp=-235.27247387574
C      24.12300000     24.98100000     14.19500000
C      22.66200000     24.81900000     13.69900000
C      20.63800000     26.73500000     16.05300000
C      20.36900000     28.64800000     14.00100000
C      19.67700000     26.53900000     15.05100000
C      19.59300000     27.46500000     14.02100000
H      24.12300000     25.19500000     15.27400000
H      24.68000000     24.05100000     14.00600000
H      24.60300000     25.81200000     13.65700000
H      22.10700000     25.74900000     13.89000000
H      22.18400000     23.98900000     14.23900000
H      22.65350000     24.60490000     12.62010000
H      20.75100000     26.00800000     16.84400000
H      20.22700000     29.39700000     13.23600000
H      19.01600000     25.68500000     15.08000000
H      18.91100000     27.27600000     13.20500000
H      21.27670000     27.63030000     16.03170000
H      21.12220000     28.77800000     14.79200000
