8
pbedef2svp=-79.63895209693 b3lypdef2svp=-79.70423921905 b3lypvdz=-79.76189689552
C      36.35100000     33.61300000      7.83800000
C      36.32200000     32.94400000      6.47700000
H      35.32500000     33.67300000      8.23000000
H      36.76200000     34.62700000      7.73100000
H      37.34000000     32.64900000      6.18200000
H      35.67700000     32.05300000      6.51000000
H      36.97340000     33.04650000      8.54630000
H      35.91890000     33.67240000      5.75800000
