18
pbedef2svp=-326.46525230634 b3lypdef2svp=-326.67795488236 b3lypvdz=-326.92917605712
C      41.03500000     27.90900000     18.87900000
C      41.46100000     30.75100000     19.59400000
C      40.16800000     30.02600000     19.91800000
O      39.26400000     30.66200000     20.52100000
C      42.19500000     31.14200000     20.91300000
C      42.90400000     32.41400000     20.55300000
N      40.05900000     28.75800000     19.60700000
H      41.73000000     27.40700000     19.56800000
H      41.60700000     28.49000000     18.14100000
H      42.11200000     30.14800000     18.94400000
H      41.47600000     31.30900000     21.72900000
H      42.91200000     30.36200000     21.21000000
H      43.23600000     32.95400000     21.45200000
H      43.76900000     32.21800000     19.90300000
H      40.35580000     27.19270000     18.39360000
H      41.25790000     31.74700000     19.17360000
H      42.12220000     32.97330000     20.01830000
H      39.21520000     28.25660000     19.79860000
