17
pbedef2svp=-342.48683659519 b3lypdef2svp=-342.70405181951 b3lypvdz=-342.96801000861
N      24.79000000     32.02100000     13.61800000
C      25.14900000     31.60900000     14.98000000
C      25.69800000     32.87600000     15.66900000
O      26.15800000     33.73000000     14.89400000
C      26.31000000     30.59400000     14.96700000
C      26.29000000     29.48000000     13.96000000
N      25.62100000     32.94500000     16.95000000
H      25.50600000     32.15100000     12.93200000
H      24.28500000     31.20800000     15.53000000
H      27.23500000     31.16400000     14.79900000
H      26.34200000     30.12800000     15.96300000
H      26.46700000     29.91100000     12.96300000
H      25.18900000     32.20800000     17.47000000
H      23.83250000     32.17270000     13.37280000
H      27.07870000     28.73780000     14.15240000
H      25.30590000     28.98870000     13.95420000
H      25.99730000     33.74220000     17.42210000
