16
pbedef2svp=-362.29422249553 b3lypdef2svp=-362.52130906654 b3lypvdz=-362.8062189286
N      30.16300000     40.33800000     10.88600000
C      29.54200000     39.02000000     10.65300000
C      30.49400000     38.26100000      9.72900000
O      30.84900000     38.85000000      8.70600000
C      28.11300000     39.04900000     10.01500000
O      27.28000000     39.72200000     10.99600000
C      27.58800000     37.63500000      9.71500000
H      30.35300000     40.96100000     10.12800000
H      29.47700000     38.47800000     11.60800000
H      28.15100000     39.62800000      9.08100000
H      26.38900000     39.77600000     10.67200000
H      26.58500000     37.70300000      9.26900000
H      28.26800000     37.13300000      9.01200000
H      27.53600000     37.05800000     10.65000000
H      30.38720000     40.58650000     11.82830000
H      30.74240000     37.23280000     10.03100000
