6
pbedef2svp=-169.57419393599 b3lypdef2svp=-169.67621495075 b3lypvdz=-169.8105902634
C      41.76500000     34.82900000     30.94400000
O      42.94500000     34.99400000     30.58300000
N      41.16500000     35.53100000     31.89800000
H      40.19900000     35.35100000     32.08500000
H      41.12190000     34.08860000     30.44580000
H      41.63180000     36.23060000     32.43900000
