5
pbedef2svp=-189.40411401873 b3lypdef2svp=-189.51523411849 b3lypvdz=-189.66833796532
O      43.66600000     28.26200000      9.53900000
O      42.43000000     28.81200000      7.72800000
C      42.62600000     28.55700000      8.92800000
H      43.25100000     28.75500000      7.25300000
H      41.74210000     28.71750000      9.56280000
