15
pbedef2svp=-287.24850157136 b3lypdef2svp=-287.65587172469 b3lypvdz=-287.65587172469
C      31.02200000     29.28800000      5.66500000
O      29.80900000     29.39500000      5.54500000
N      31.83400000     28.41200000      5.12500000
C      31.22000000     27.34100000      4.27500000
C      31.82700000     27.26200000      2.89400000
C      31.36300000     28.41000000      1.96200000
H      32.82200000     28.45600000      5.27400000
H      30.13900000     27.52500000      4.18300000
H      32.92200000     27.30900000      2.98900000
H      31.53900000     26.30300000      2.43900000
H      30.27100000     28.49200000      2.06200000
H      31.83500000     29.33600000      2.32200000
H      31.49180000     29.99600000      6.36360000
H      31.38000000     26.42350000      4.86030000
H      31.58880000     28.32280000      0.88900000
