7
pbedef2svp=-95.64033744088 b3lypdef2svp=-95.70984742817 b3lypvdz=-95.78114571477
N      27.36100000     17.95900000      8.55900000
C      28.05400000     16.83500000      9.21000000
H      27.51100000     18.13900000      7.58700000
H      27.36300000     16.33700000      9.90600000
H      26.74090000     18.54350000      9.08230000
H      28.93070000     17.18670000      9.77360000
H      28.39370000     16.09990000      8.46550000
