13
pbedef2svp=-174.09908194385 b3lypdef2svp=-174.22429288585 b3lypvdz=-174.35388000557
C      29.96300000     33.31700000     12.81400000
C      30.21100000     33.39400000     14.30400000
N      28.26000000     33.94300000     11.09600000
C      28.60500000     33.96500000     12.50300000
H      30.75600000     33.85900000     12.27900000
H      31.18200000     32.93300000     14.53900000
H      30.22000000     34.44800000     14.62000000
H      29.41200000     32.85800000     14.83700000
H      28.87600000     34.37900000     10.44000000
H      27.82500000     33.46000000     13.09200000
H      29.95870000     32.26700000     12.48600000
H      27.42560000     33.50580000     10.76040000
H      28.62840000     35.02800000     12.78510000
