8
pbedef2svp=-79.63955201136 b3lypdef2svp=-79.70474992049 b3lypvdz=-79.7625053825
C      35.71500000     26.20300000     17.17200000
C      34.34300000     26.44500000     17.89800000
H      35.94800000     25.12800000     17.16500000
H      36.51400000     26.74800000     17.69600000
H      34.05700000     27.50400000     17.81100000
H      33.56400000     25.81600000     17.44200000
H      35.62940000     26.57130000     16.13900000
H      34.46340000     26.17810000     18.95830000
