12
pbedef2svp=-248.02427090914 b3lypdef2svp=-248.18297519954 b3lypvdz=-248.37502163924
O      23.57900000     31.32100000      9.55400000
N      22.24100000     31.87300000     11.24100000
C      23.21200000     32.76200000     11.89100000
C      22.69900000     34.26700000     11.98500000
C      22.50400000     31.22800000     10.13600000
H      21.34100000     31.75600000     11.66200000
H      24.14700000     32.76300000     11.31200000
H      21.74500000     34.28200000     12.53300000
H      23.42580000     32.37470000     12.89810000
H      22.54660000     34.58290000     10.94240000
H      23.43720000     34.88740000     12.51420000
H      21.73270000     30.53490000      9.76920000
