19
pbedef2svp=-252.53211004058 b3lypdef2svp=-252.71174156428 b3lypvdz=-252.89971594
N      30.88400000     31.48500000      6.66600000
C      31.67700000     30.27500000      6.63900000
C      31.56200000     29.68600000      8.04500000
C      32.63100000     29.44400000      9.06000000
C      33.81400000     30.39000000      9.03000000
C      31.94500000     29.44900000     10.43600000
H      29.90500000     31.41600000      6.85800000
H      32.72700000     30.46400000      6.36900000
H      30.84400000     30.34400000      8.55700000
H      31.10600000     28.69700000      7.88900000
H      33.02000000     28.42800000      8.89700000
H      34.52800000     30.11100000      9.81900000
H      34.30900000     30.32700000      8.05000000
H      33.46500000     31.41900000      9.19900000
H      32.69500000     29.27400000     11.22100000
H      31.46200000     30.42300000     10.60100000
H      31.18600000     28.65300000     10.47000000
H      31.28060000     32.38780000      6.49980000
H      31.20720000     29.56700000      5.94040000
