9
pbedef2svp=-208.80950866936 b3lypdef2svp=-208.94024636466 b3lypvdz=-209.10368118863
N      22.09900000     29.16300000      5.60500000
C      21.65600000     26.84700000      5.24000000
C      21.12700000     28.24000000      5.57400000
O      19.95800000     28.46500000      5.84200000
H      23.03200000     28.85400000      5.42200000
H      22.70900000     26.81500000      5.55600000
H      21.96560000     30.13540000      5.79670000
H      21.09940000     26.09800000      5.82240000
H      21.63790000     26.69890000      4.15020000
