9
pbedef2svp=-208.79528447209 b3lypdef2svp=-208.92608550861 b3lypvdz=-209.08904161413
N      30.13200000     40.06900000     18.64200000
C      29.60700000     41.18000000     19.46700000
C      29.66400000     39.83900000     17.43400000
O      28.85000000     40.56500000     16.85900000
H      30.85500000     39.48300000     19.00900000
H      28.51100000     41.16800000     19.37000000
H      29.94670000     42.16570000     19.11640000
H      29.83110000     40.97170000     20.52360000
H      30.06730000     38.97920000     16.87900000
