5
pbedef2svp=-40.4126284826 b3lypdef2svp=-40.44939030305 b3lypvdz=-40.47794559727
C      21.90700000     30.56300000      5.88100000
H      22.89500000     31.02900000      5.75500000
H      22.05370000     29.49340000      5.67010000
H      21.58370000     30.84890000      6.89280000
H      21.28200000     31.02960000      5.10540000
