10
pbedef2svp=-192.74951077223 b3lypdef2svp=-192.87785274934 b3lypvdz=-193.02852765161
C      29.01500000     21.65700000     22.28800000
C      29.94200000     21.10600000     21.24000000
O      29.47000000     20.67700000     20.19000000
C      28.34800000     20.54000000     23.06600000
H      29.58400000     22.29400000     22.98200000
H      27.77300000     21.00700000     23.87900000
H      27.66000000     20.02800000     22.37700000
H      28.21680000     22.24540000     21.81190000
H      31.02640000     21.09260000     21.42400000
H      28.98750000     19.76900000     23.52050000
