11
pbedef2svp=-321.90674621981 b3lypdef2svp=-322.09994126768 b3lypvdz=-322.35600759344
C      27.81900000     20.60900000      7.31600000
O      28.44900000     20.67400000      8.36000000
N      26.55900000     20.22000000      7.28800000
C      25.82900000     19.82500000      8.49400000
C      26.54100000     18.73200000      9.25100000
O      26.33300000     18.53600000     10.45700000
H      25.66900000     20.69300000      9.15000000
H      28.28810000     20.84830000      6.35030000
H      25.98970000     20.14450000      6.46940000
H      24.86060000     19.47400000      8.10810000
H      27.22310000     18.08900000      8.67540000
