13
pbedef2svp=-377.18444411048 b3lypdef2svp=-377.40663990234 b3lypvdz=-377.70487842623
N      39.65500000     34.33500000     11.28500000
C      39.67600000     35.54700000     12.07200000
C      40.67500000     35.52700000     13.20000000
O      40.81400000     36.52800000     13.91100000
N      41.31700000     34.39300000     13.43200000
C      39.83700000     34.27100000      9.99500000
O      40.16400000     35.32300000      9.34500000
H      39.48700000     33.47600000     11.76900000
H      39.91600000     36.39600000     11.41500000
H      41.07700000     33.58800000     12.89000000
H      38.68860000     35.73720000     12.51800000
H      42.03150000     34.30680000     14.12630000
H      39.81560000     33.32660000      9.43140000
