16
pbedef2svp=-271.19936774724 b3lypdef2svp=-271.3827315847 b3lypvdz=-271.59207877085
C      34.14500000     35.47200000     23.48100000
C      34.23900000     35.35300000     24.97900000
O      33.70700000     36.19700000     25.72800000
C      35.11400000     36.56400000     22.90700000
C      35.92600000     35.97900000     21.73700000
C      36.53300000     37.08700000     20.91700000
H      34.41100000     34.50500000     23.02800000
H      34.52600000     37.42200000     22.55000000
H      35.80200000     36.89500000     23.69900000
H      36.73600000     35.36100000     22.15200000
H      37.11000000     36.65500000     20.08600000
H      35.73300000     37.72600000     20.51500000
H      37.20000000     37.68900000     21.55100000
H      33.11810000     35.73870000     23.19050000
H      34.83270000     34.52050000     25.38450000
H      35.25950000     35.33270000     21.14700000
