17
pbedef2svp=-342.4477618309
C      22.82400000     34.51400000     17.78200000
N      22.04500000     35.45500000     17.17300000
C      24.10100000     30.14900000     19.19600000
O      24.19600000     30.94800000     18.28700000
N      23.14100000     29.18700000     19.24100000
C      22.12600000     29.06200000     18.18300000
C      22.49400000     28.05700000     17.10900000
H      22.56500000     33.48000000     17.95500000
H      23.76530000     35.00910000     18.06260000
H      22.51780000     36.33590000     17.19330000
H      23.12400000     28.54900000     20.01100000
H      21.95700000     30.04300000     17.71400000
H      23.42500000     28.39400000     16.63000000
H      22.66300000     27.08400000     17.59400000
H      24.77440000     30.16420000     20.06570000
H      21.20430000     28.75290000     18.69770000
H      21.73530000     27.92080000     16.32420000
