14
pbedef2svp=-361.13459750273 b3lypdef2svp=-361.3561021995 b3lypvdz=-361.64147035495
C      31.67700000     30.27500000      6.63900000
C      31.02200000     29.28800000      5.66500000
O      29.80900000     29.39500000      5.54500000
N      31.83400000     28.41200000      5.12500000
C      31.22000000     27.34100000      4.27500000
C      31.44000000     26.07900000      5.08000000
O      32.57600000     25.80200000      5.46100000
H      32.72700000     30.46400000      6.36900000
H      32.82200000     28.45600000      5.27400000
H      30.13900000     27.52500000      4.18300000
H      31.07410000     31.19490000      6.65950000
H      31.59430000     29.85120000      7.65070000
H      31.66200000     27.28350000      3.26940000
H      30.50170000     25.56340000      5.33240000
