11
pbedef2svp=-267.82748761273 b3lypdef2svp=-267.99606499573 b3lypvdz=-268.20921369972
C      31.42200000     43.94000000     17.55300000
C      30.75500000     44.35100000     16.27700000
O      31.20700000     45.26800000     15.56600000
C      32.97900000     43.91800000     17.44500000
O      33.17400000     43.06700000     16.26500000
H      31.15100000     44.66200000     18.33700000
H      33.35300000     44.93600000     17.26300000
H      34.10300000     42.97400000     16.09100000
H      31.10650000     42.93780000     17.87880000
H      29.87810000     43.77600000     15.94460000
H      33.46820000     43.48580000     18.33040000
