14
pbedef2svp=-361.1302792872 b3lypdef2svp=-361.34995633645 b3lypvdz=-361.63605069702
N      32.47800000     30.91700000     22.26900000
C      31.20000000     30.32900000     22.78000000
C      30.21000000     30.50900000     21.65000000
O      29.97800000     31.72600000     21.26900000
C      34.73800000     30.87500000     21.47300000
C      33.58900000     30.18900000     22.18100000
O      33.58000000     29.00900000     22.49900000
H      32.49800000     31.87600000     21.98800000
H      31.35500000     29.25000000     22.92500000
H      34.44500000     31.92400000     21.31900000
H      30.94270000     30.76780000     23.75530000
H      29.78370000     29.62250000     21.15760000
H      35.70020000     30.86360000     22.00590000
H      34.83590000     30.42250000     20.47520000
