9
pbedef2svp=-208.79372896791 b3lypdef2svp=-208.92358507608 b3lypvdz=-209.08682761259
C      30.49400000     38.26100000      9.72900000
O      30.84900000     38.85000000      8.70600000
N      30.79500000     37.01500000     10.09500000
C      31.72000000     36.28900000      9.17600000
H      30.42700000     36.59700000     10.92600000
H      32.03600000     37.01200000      8.41000000
H      29.80890000     38.80720000     10.39400000
H      31.16040000     35.50050000      8.65150000
H      32.63200000     35.99860000      9.71820000
