15
pbedef2svp=-378.31350907986
C      27.15100000     33.36200000     10.65000000
O      26.35000000     32.77800000     11.39500000
N      24.79000000     32.02100000     13.61800000
C      25.14900000     31.60900000     14.98000000
C      25.69800000     32.87600000     15.66900000
O      26.15800000     33.73000000     14.89400000
N      25.62100000     32.94500000     16.95000000
H      26.87370000     33.41610000      9.58690000
H      28.06890000     33.84290000     11.01910000
H      25.50600000     32.15100000     12.93200000
H      24.28500000     31.20800000     15.53000000
H      25.18900000     32.20800000     17.47000000
H      23.83250000     32.17270000     13.37280000
H      25.97710000     30.88500000     14.97070000
H      25.99730000     33.74220000     17.42210000
