6
pbedef2svp=-169.57160012423 b3lypdef2svp=-169.67333487263 b3lypvdz=-169.80792213987
C      31.40900000     32.68000000      6.44600000
O      32.61900000     32.81200000      6.12500000
N      30.88400000     31.48500000      6.66600000
H      29.90500000     31.41600000      6.85800000
H      30.74920000     33.55880000      6.49420000
H      31.43200000     30.64880000      6.64730000
