16
pbedef2svp=-159.26782667493
C      27.96700000     28.08700000     10.41700000
C      27.81000000     28.74800000      8.99900000
C      31.56200000     29.68600000      8.04500000
C      32.63100000     29.44400000      9.06000000
H      29.03100000     27.89400000     10.61600000
H      27.56800000     28.76600000     11.18400000
H      27.41100000     27.13800000     10.44300000
H      28.22100000     28.06200000      8.24300000
H      28.37700000     29.69100000      8.98500000
H      26.76150000     28.96400000      8.74580000
H      30.84400000     30.34400000      8.55700000
H      31.10600000     28.69700000      7.88900000
H      33.02000000     28.42800000      8.89700000
H      31.64470000     30.10980000      7.03330000
H      33.48990000     30.13090000      9.03820000
H      32.14020000     29.44760000     10.04440000
