23
pbedef2svp=-312.80439274039
C      25.34900000     26.87200000     23.64300000
C      26.07000000     27.02500000     24.96000000
C      25.93100000     25.84400000     18.95900000
C      26.20300000     26.08300000     17.47100000
C      28.76200000     29.57300000     19.90600000
C      27.33100000     29.31700000     20.36400000
O      27.10100000     28.34600000     21.09700000
H      25.55800000     27.73800000     22.99800000
H      25.61000000     27.84000000     25.53800000
H      25.99900000     26.08600000     25.52900000
H      24.26500000     26.76500000     23.79650000
H      25.63300000     25.94500000     23.12330000
H      27.12760000     27.26110000     24.77100000
H      25.90600000     26.81600000     19.47400000
H      25.39600000     26.69700000     17.04400000
H      27.16300000     26.60700000     17.35300000
H      26.24600000     25.11700000     16.94600000
H      26.73110000     25.23090000     19.39940000
H      24.94360000     25.36710000     19.04650000
H      28.81600000     30.60900000     19.54100000
H      29.45240000     29.47150000     20.75640000
H      29.04300000     28.90990000     19.07460000
H      26.59060000     30.07400000     20.06620000
