15
pbedef2svp=-378.39356951486 b3lypdef2svp=-378.62620163986 b3lypvdz=-378.92366650555
N      25.62100000     32.94500000     16.95000000
C      25.14900000     31.60900000     14.98000000
C      25.69800000     32.87600000     15.66900000
O      26.15800000     33.73000000     14.89400000
N      23.14100000     29.18700000     19.24100000
C      24.10100000     30.14900000     19.19600000
O      24.19600000     30.94800000     18.28700000
H      25.18900000     32.20800000     17.47000000
H      24.28500000     31.20800000     15.53000000
H      25.99730000     33.74220000     17.42210000
H      24.87990000     31.91780000     13.95910000
H      25.97710000     30.88500000     14.97070000
H      23.12400000     28.54900000     20.01100000
H      22.45120000     29.10210000     18.52200000
H      24.77440000     30.16420000     20.06570000
