9
pbedef2svp=-208.79528545592 b3lypdef2svp=-208.92528211484 b3lypvdz=-209.08861868886
C      30.32000000     16.69800000     19.05100000
O      30.19800000     15.65700000     18.36600000
N      29.34000000     17.59400000     19.07600000
C      28.10800000     17.43900000     18.27600000
H      29.44000000     18.40200000     19.65700000
H      27.85100000     16.37300000     18.19200000
H      31.24010000     16.89260000     19.62160000
H      28.30110000     17.84390000     17.27160000
H      27.25840000     17.97950000     18.71880000
