15
pbedef2svp=-378.37787032364 b3lypdef2svp=-378.61047062076 b3lypvdz=-378.90725620217
C      30.49400000     38.26100000      9.72900000
O      30.84900000     38.85000000      8.70600000
N      30.79500000     37.01500000     10.09500000
N      27.75100000     35.86700000     13.74000000
C      27.69100000     37.31500000     14.14300000
C      28.63800000     35.46100000     12.90000000
O      29.52200000     36.10300000     12.32000000
H      30.42700000     36.59700000     10.92600000
H      29.80890000     38.80720000     10.39400000
H      31.41480000     36.52850000      9.47920000
H      27.09800000     35.21600000     14.12700000
H      28.13900000     37.93800000     13.35500000
H      28.26010000     37.43200000     15.07710000
H      26.63020000     37.58090000     14.26120000
H      28.61460000     34.39800000     12.61790000
