8
pbedef2svp=-79.63449236388 b3lypdef2svp=-79.69951291609 b3lypvdz=-79.75726097662
C      32.26200000     20.67000000     20.51400000
C      33.63800000     20.71600000     21.24200000
H      32.31500000     21.45700000     19.74700000
H      33.51900000     20.30000000     22.25300000
H      34.35900000     20.10600000     20.67800000
H      31.48610000     20.98670000     21.22650000
H      32.16500000     19.72420000     19.96070000
H      34.02710000     21.74170000     21.32330000
