9
pbedef2svp=-208.79412399894 b3lypdef2svp=-208.92380756503 b3lypvdz=-209.08719358544
C      31.40900000     32.68000000      6.44600000
O      32.61900000     32.81200000      6.12500000
N      30.88400000     31.48500000      6.66600000
C      31.67700000     30.27500000      6.63900000
H      29.90500000     31.41600000      6.85800000
H      32.72700000     30.46400000      6.36900000
H      30.74920000     33.55880000      6.49420000
H      31.20720000     29.56700000      5.94040000
H      31.59430000     29.85120000      7.65070000
