15
pbedef2svp=-378.36089025221
O      29.80900000     29.39500000      5.54500000
N      31.83400000     28.41200000      5.12500000
C      31.22000000     27.34100000      4.27500000
C      31.02200000     29.28800000      5.66500000
N      26.21400000     32.09700000      8.77100000
C      26.88200000     31.42800000      7.86200000
O      27.90600000     31.71100000      7.26400000
H      32.82200000     28.45600000      5.27400000
H      30.13900000     27.52500000      4.18300000
H      31.38000000     26.42350000      4.86030000
H      31.66200000     27.28350000      3.26940000
H      31.49180000     29.99600000      6.36360000
H      25.36900000     31.73600000      9.16600000
H      26.58310000     32.98270000      9.05280000
H      26.42530000     30.46100000      7.60440000
