12
pbedef2svp=-193.92202876762
C      27.33100000     29.31700000     20.36400000
O      27.10100000     28.34600000     21.09700000
C      25.34900000     26.87200000     23.64300000
C      26.07000000     27.02500000     24.96000000
H      28.36380000     29.50180000     20.03350000
H      26.59060000     30.07400000     20.06620000
H      25.55800000     27.73800000     22.99800000
H      25.61000000     27.84000000     25.53800000
H      25.99900000     26.08600000     25.52900000
H      24.26500000     26.76500000     23.79650000
H      25.63300000     25.94500000     23.12330000
H      27.12760000     27.26110000     24.77100000
