13
pbedef2svp=-174.10404033172 b3lypdef2svp=-174.2295255252 b3lypvdz=-174.36037915689
N      27.34000000     24.43000000      2.61400000
C      26.26600000     25.41300000      2.84200000
C      25.11200000     24.88000000      3.64900000
C      25.35300000     24.86000000      5.13400000
H      26.96100000     23.61900000      2.16800000
H      28.04300000     24.83400000      2.02900000
H      25.88000000     25.74300000      1.86700000
H      24.23300000     25.51000000      3.45100000
H      24.90700000     23.85100000      3.31900000
H      26.29500000     24.33800000      5.35600000
H      25.40300000     25.88800000      5.52200000
H      26.72570000     26.28420000      3.33160000
H      24.50780000     24.32480000      5.59140000
