21
pbedef2svp=-344.7862026895
C      26.01000000     16.37000000     20.28000000
N      26.97500000     15.52100000     20.94200000
C      24.18400000     16.01600000     16.61900000
O      25.30300000     15.89400000     17.15200000
N      27.51000000     17.68900000     15.95400000
C      27.57400000     18.19200000     14.56300000
C      27.29900000     17.05500000     13.53300000
H      25.04200000     16.33600000     20.80100000
H      25.87400000     16.05900000     19.23400000
H      27.21900000     15.86700000     21.84800000
H      26.44200000     17.38030000     20.33090000
H      27.45920000     14.67450000     20.72070000
H      23.65580000     16.97670000     16.70810000
H      23.65440000     15.22930000     16.06170000
H      26.75900000     17.07400000     16.19600000
H      28.56000000     18.63600000     14.36100000
H      27.28300000     17.48700000     12.52200000
H      28.17060000     17.92570000     16.66650000
H      26.79760000     18.96560000     14.46990000
H      26.28680000     16.72790000     13.81300000
H      27.97910000     16.19060000     13.55110000
