18
pbedef2svp=-326.4661140168 b3lypdef2svp=-326.67855395313 b3lypvdz=-326.92957284441
C      36.35100000     33.61300000      7.83800000
C      41.39900000     31.33800000      9.96700000
O      42.26000000     32.03600000      9.38100000
N      40.11700000     31.75000000      9.98800000
C      39.80800000     32.99400000      9.23300000
C      38.61500000     32.80100000      8.32000000
C      37.22000000     32.82200000      8.82700000
H      35.32500000     33.67300000      8.23000000
H      36.76200000     34.62700000      7.73100000
H      39.41000000     31.24600000     10.48500000
H      40.65200000     33.09000000      8.53400000
H      38.67800000     33.59500000      7.56100000
H      38.75200000     31.82100000      7.83900000
H      36.84100000     31.79300000      8.91200000
H      37.19200000     33.30600000      9.81400000
H      36.33000000     33.12780000      6.85100000
H      41.63080000     30.38150000     10.45830000
H      39.82940000     33.93840000      9.79660000
