16
pbedef2svp=-325.20878163923
O      23.57900000     31.32100000      9.55400000
N      22.24100000     31.87300000     11.24100000
C      22.50400000     31.22800000     10.13600000
C      23.81200000     34.03100000      5.67700000
C      24.62000000     34.77800000      4.85300000
C      25.28800000     34.60900000      7.49900000
C      24.14700000     33.96600000      7.03800000
H      21.34100000     31.75600000     11.66200000
H      22.90230000     32.47850000     11.68370000
H      21.73270000     30.53490000      9.76920000
H      22.94800000     33.51100000      5.29000000
H      24.31900000     34.89900000      3.82300000
H      23.51900000     33.41800000      7.72500000
H      25.55390000     35.25990000      5.17790000
H      25.58500000     34.52800000      8.55500000
H      25.94760000     35.18220000      6.83090000
