16
pbedef2svp=-213.31468296239 b3lypdef2svp=-213.4674744329 b3lypvdz=-213.62643040238
C      32.99500000     35.88300000      9.93400000
C      33.30600000     34.38100000      9.84000000
C      34.53500000     34.02800000     10.72000000
N      30.79500000     37.01500000     10.09500000
C      31.72000000     36.28900000      9.17600000
H      33.82000000     36.38500000      9.40700000
H      32.43400000     33.80800000     10.18800000
H      33.52200000     34.12000000      8.79300000
H      34.74500000     32.95100000     10.64200000
H      35.41000000     34.59800000     10.37300000
H      34.32100000     34.28500000     11.76800000
H      30.42700000     36.59700000     10.92600000
H      32.03600000     37.01200000      8.41000000
H      33.07410000     36.22850000     10.97530000
H      30.56920000     37.94970000      9.82040000
H      31.16040000     35.50050000      8.65150000
