12
pbedef2svp=-248.03458018313 b3lypdef2svp=-248.19267769686 b3lypvdz=-248.38557118686
C      40.26900000     30.50800000     14.11500000
C      41.09200000     30.80800000     12.85100000
O      41.82800000     31.80800000     12.68100000
C      40.99600000     29.39900000     14.86500000
N      41.00100000     29.87800000     11.93100000
H      40.23000000     31.41000000     14.74400000
H      40.46600000     29.18400000     15.80400000
H      41.02200000     28.49200000     14.24300000
H      40.44300000     29.06500000     12.10000000
H      39.25060000     30.21550000     13.81960000
H      42.02450000     29.71770000     15.09000000
H      41.48510000     29.97520000     11.06140000
