16
pbedef2svp=-159.27526753447 b3lypdef2svp=-159.40499292109 b3lypvdz=-159.52037295088
C      40.99600000     29.39900000     14.86500000
C      42.44500000     29.84800000     15.18200000
C      39.09000000     26.62900000     19.32500000
C      40.08200000     26.90400000     18.19800000
H      40.46600000     29.18400000     15.80400000
H      41.02200000     28.49200000     14.24300000
H      43.02100000     29.92200000     14.24800000
H      42.42600000     30.82900000     15.68000000
H      40.47110000     30.19970000     14.32350000
H      42.91390000     29.10660000     15.84570000
H      39.53200000     25.97200000     20.08900000
H      38.16800000     26.17200000     18.93700000
H      40.61100000     25.98900000     17.89400000
H      39.58500000     27.34800000     17.32300000
H      38.89320000     27.63190000     19.73170000
H      40.76120000     27.62030000     18.68340000
