19
pbedef2svp=-252.54451300872 b3lypdef2svp=-252.9143166838 b3lypvdz=-252.9143166838
C      36.35100000     33.61300000      7.83800000
C      36.32200000     32.94400000      6.47700000
N      35.76800000     33.94500000      5.48900000
C      39.80800000     32.99400000      9.23300000
C      38.61500000     32.80100000      8.32000000
C      37.22000000     32.82200000      8.82700000
H      35.32500000     33.67300000      8.23000000
H      36.76200000     34.62700000      7.73100000
H      37.34000000     32.64900000      6.18200000
H      35.67700000     32.05300000      6.51000000
H      35.73600000     33.53300000      4.57900000
H      34.84500000     34.21200000      5.76700000
H      40.65200000     33.09000000      8.53400000
H      38.67800000     33.59500000      7.56100000
H      38.75200000     31.82100000      7.83900000
H      36.84100000     31.79300000      8.91200000
H      37.19200000     33.30600000      9.81400000
H      40.03650000     32.07410000      9.79130000
H      39.82940000     33.93840000      9.79660000
