18
pbedef2svp=-326.48297053953 b3lypdef2svp=-326.69684164158 b3lypvdz=-326.94744333558
N      20.29100000     24.87500000      9.50700000
C      20.08100000     24.77300000      8.03300000
C      18.59900000     24.73600000      7.72700000
C      17.81900000     23.43400000      7.90000000
C      21.18400000     24.26300000     11.69000000
C      21.11000000     24.11100000     10.17300000
O      21.84100000     23.19800000      9.68600000
H      19.77500000     25.56800000     10.01100000
H      20.52200000     23.82600000      7.68800000
H      18.12100000     25.48200000      8.37800000
H      18.48300000     25.03900000      6.67600000
H      18.41700000     22.59300000      7.51900000
H      17.60000000     23.27500000      8.96600000
H      20.53700000     25.08800000     12.02200000
H      20.61360000     25.59310000      7.52920000
H      16.87690000     23.50230000      7.33620000
H      20.84000000     23.30620000     12.10980000
H      22.21520000     24.44100000     12.02900000
