14
pbedef2svp=-158.04430260417 b3lypdef2svp=-158.17026092282 b3lypvdz=-158.28763018435
C      23.81200000     34.03100000      5.67700000
C      24.62000000     34.77800000      4.85300000
C      21.02300000     31.22300000      4.78400000
C      21.86100000     31.34200000      3.47400000
H      22.94800000     33.51100000      5.29000000
H      24.31900000     34.89900000      3.82300000
H      24.07460000     33.98000000      6.74400000
H      25.55390000     35.25990000      5.17790000
H      20.13500000     30.60100000      4.60000000
H      20.70800000     32.22400000      5.11400000
H      22.03900000     32.40600000      3.26000000
H      22.82400000     30.83100000      3.61900000
H      21.64800000     30.75640000      5.55960000
H      21.34160000     30.88810000      2.61710000
