22
pbedef2svp=-237.68836340451
C      21.32500000     28.81300000     15.00500000
C      20.36900000     28.64800000     14.00100000
C      24.12300000     24.98100000     14.19500000
C      22.66200000     24.81900000     13.69900000
C      24.94200000     28.80700000     13.95200000
C      26.29000000     29.48000000     13.96000000
H      21.97400000     29.67600000     14.99200000
H      20.22700000     29.39700000     13.23600000
H      21.42110000     28.06910000     15.80960000
H      19.76570000     27.72830000     14.01650000
H      24.12300000     25.19500000     15.27400000
H      24.68000000     24.05100000     14.00600000
H      24.60300000     25.81200000     13.65700000
H      22.10700000     25.74900000     13.89000000
H      22.18400000     23.98900000     14.23900000
H      22.65350000     24.60490000     12.62010000
H      24.94200000     27.99400000     13.21100000
H      24.73300000     28.39300000     14.95000000
H      24.16700000     29.54200000     13.69000000
H      26.46700000     29.91100000     12.96300000
H      26.30460000     30.29590000     14.69760000
H      27.07870000     28.73780000     14.15240000
