14
pbedef2svp=-303.25845274405 b3lypdef2svp=-303.44794426106 b3lypvdz=-303.68315904197
N      24.79000000     32.02100000     13.61800000
C      25.14900000     31.60900000     14.98000000
C      25.69800000     32.87600000     15.66900000
O      26.15800000     33.73000000     14.89400000
C      26.31000000     30.59400000     14.96700000
N      25.62100000     32.94500000     16.95000000
H      25.50600000     32.15100000     12.93200000
H      24.28500000     31.20800000     15.53000000
H      27.23500000     31.16400000     14.79900000
H      26.34200000     30.12800000     15.96300000
H      25.18900000     32.20800000     17.47000000
H      23.83250000     32.17270000     13.37280000
H      26.29540000     29.77810000     14.22940000
H      25.99730000     33.74220000     17.42210000
