9
pbedef2svp=-154.71796162965 b3lypdef2svp=-154.82399897193 b3lypvdz=-154.94438950085
O      33.77800000     18.73900000     14.51600000
C      31.39800000     19.06400000     14.28600000
C      32.49200000     18.19300000     14.99500000
H      34.49400000     18.25400000     14.90900000
H      30.40500000     18.73500000     14.62700000
H      32.40300000     18.31600000     16.08500000
H      31.48330000     18.96650000     13.19370000
H      31.53670000     20.12320000     14.54850000
H      32.39220000     17.12890000     14.73480000
