8
pbedef2svp=-79.64012545564 b3lypdef2svp=-79.70539890327 b3lypvdz=-79.76308220957
C      30.41600000     28.91200000     17.98000000
C      30.20500000     30.16800000     17.12900000
H      31.24500000     29.08800000     18.68100000
H      31.11700000     30.37800000     16.55200000
H      29.36400000     30.00600000     16.43900000
H      29.98200000     31.02200000     17.78500000
H      29.49180000     28.72420000     18.54620000
H      30.64830000     28.03280000     17.36110000
