14
pbedef2svp=-361.13773552454 b3lypdef2svp=-361.35773533102 b3lypvdz=-361.6436487155
C      26.17900000     34.12700000     17.65000000
C      27.47500000     33.65100000     18.30400000
O      27.50700000     32.58700000     18.95800000
N      28.52500000     34.44700000     18.18900000
C      29.80100000     34.14500000     18.82900000
C      30.05200000     35.04200000     20.00400000
O      30.10500000     36.30500000     19.78800000
H      26.36900000     34.95900000     16.95600000
H      28.44200000     35.28300000     17.64600000
H      29.80100000     33.10000000     19.17200000
H      25.76500000     33.25010000     17.13070000
H      25.49380000     34.43800000     18.45240000
H      30.59150000     34.25680000     18.07230000
H      30.11320000     34.60920000     21.01340000
