24
pbedef2svp=-238.91800339329 b3lypdef2svp=-239.11155767364 b3lypvdz=-239.28446418374
C      25.11200000     24.88000000      3.64900000
C      25.35300000     24.86000000      5.13400000
C      26.34400000     29.05000000      8.64500000
C      25.49100000     27.77100000      8.28700000
C      21.65600000     26.84700000      5.24000000
C      21.63100000     26.64200000      3.73100000
H      24.23300000     25.51000000      3.45100000
H      24.90700000     23.85100000      3.31900000
H      26.29500000     24.33800000      5.35600000
H      25.40300000     25.88800000      5.52200000
H      25.95510000     25.26940000      3.05940000
H      24.50780000     24.32480000      5.59140000
H      25.87900000     29.50700000      9.53100000
H      25.56300000     27.04000000      9.10600000
H      24.43900000     28.06000000      8.14500000
H      25.87600000     27.32100000      7.36000000
H      26.26570000     29.77390000      7.82050000
H      27.39250000     28.83400000      8.89820000
H      22.70900000     26.81500000      5.55600000
H      22.06200000     27.53200000      3.24900000
H      22.24200000     25.76100000      3.48700000
H      21.09940000     26.09800000      5.82240000
H      21.27490000     27.85040000      5.48060000
H      20.61700000     26.48570000      3.33430000
