11
pbedef2svp=-118.86743333083 b3lypdef2svp=-118.96059849333 b3lypvdz=-119.04750007691
C      27.39300000     28.44200000     14.22900000
C      24.94200000     28.80700000     13.95200000
C      26.29000000     29.48000000     13.96000000
H      27.34200000     27.64700000     13.47100000
H      28.37700000     28.93200000     14.18100000
H      27.24900000     28.00500000     15.22800000
H      24.94200000     27.99400000     13.21100000
H      24.73300000     28.39300000     14.95000000
H      24.16700000     29.54200000     13.69000000
H      26.46700000     29.91100000     12.96300000
H      26.30460000     30.29590000     14.69760000
