15
pbedef2svp=-287.22095096832
C      22.94500000     21.95100000     17.78500000
C      24.27200000     21.54400000     17.64400000
N      26.58500000     20.06300000     13.37800000
C      27.57400000     18.19200000     14.56300000
C      26.48200000     19.28000000     14.43200000
O      25.60900000     19.38800000     15.28700000
H      24.69800000     21.42900000     16.65800000
H      22.31860000     22.17170000     16.90810000
H      22.54370000     22.11370000     18.79620000
H      24.88530000     21.34030000     18.53410000
H      27.36400000     19.94300000     12.76300000
H      28.56000000     18.63600000     14.36100000
H      25.91220000     20.77310000     13.17030000
H      27.52640000     17.81830000     15.59650000
H      27.37990000     17.38960000     13.83610000
