18
pbedef2svp=-326.48595917498 b3lypdef2svp=-326.69900112886 b3lypvdz=-326.9497746597
N      30.99100000     42.57100000     17.99800000
C      31.42200000     43.94000000     17.55300000
C      32.97900000     43.91800000     17.44500000
C      33.65700000     43.31900000     18.67200000
C      29.60700000     41.18000000     19.46700000
C      30.07500000     42.53800000     18.98400000
O      29.58600000     43.57000000     19.48300000
H      31.36100000     41.73700000     17.58800000
H      31.15100000     44.66200000     18.33700000
H      33.35300000     44.93600000     17.26300000
H      34.74800000     43.33300000     18.53200000
H      33.39400000     43.91000000     19.56100000
H      33.31800000     42.28100000     18.80800000
H      28.51100000     41.16800000     19.37000000
H      30.93200000     44.24190000     16.61560000
H      33.12510000     43.28030000     16.56070000
H      29.99720000     40.35430000     18.85380000
H      29.83110000     40.97170000     20.52360000
