11
pbedef2svp=-209.92502983955
N      26.43600000     30.23200000     20.00400000
C      25.03400000     30.17000000     20.40100000
C      23.04600000     27.08700000     22.91300000
O      23.38300000     27.62700000     21.87000000
H      26.73800000     30.99700000     19.43500000
H      24.85900000     29.26400000     21.00000000
H      27.10910000     29.54380000     20.27480000
H      24.36060000     30.15480000     19.53130000
H      24.76010000     31.04090000     21.01460000
H      21.97730000     26.87910000     23.07020000
H      23.74860000     26.78370000     23.70320000
