5
pbedef2svp=-189.40796400821 b3lypdef2svp=-189.5188325642 b3lypvdz=-189.67211009421
C      40.55900000     28.58500000     25.67500000
O      40.71600000     29.80900000     25.45600000
O      40.54900000     28.09000000     26.84000000
H      40.67600000     28.78100000     27.47900000
H      40.40020000     27.93760000     24.80000000
