23
pbedef2svp=-312.78204503781
C      34.87600000     30.23700000     20.06600000
C      36.01200000     30.86000000     19.22100000
C      30.21000000     30.50900000     21.65000000
O      29.97800000     31.72600000     21.26900000
C      32.34500000     34.18300000     18.35800000
C      32.55500000     32.78300000     18.87000000
C      33.36100000     34.49100000     17.24500000
H      35.08000000     29.16300000     20.18800000
H      33.92600000     30.37100000     19.52700000
H      35.81700000     31.93400000     19.08500000
H      36.97000000     30.72500000     19.74400000
H      34.77810000     30.68950000     21.06380000
H      36.06390000     30.37270000     18.23620000
H      30.92970000     30.37810000     22.47150000
H      29.78370000     29.62250000     21.15760000
H      32.46000000     34.90800000     19.17700000
H      33.56400000     32.69700000     19.30000000
H      31.80600000     32.56000000     19.64400000
H      32.44800000     32.06900000     18.04000000
H      34.38200000     34.41200000     17.64800000
H      33.23400000     33.77100000     16.42300000
H      33.19300000     35.51100000     16.86800000
H      31.33610000     34.26900000     17.92820000
