5
pbedef2svp=-189.40619379551 b3lypdef2svp=-189.51784680633 b3lypvdz=-189.67082197188
O      35.25200000     22.32200000     21.95800000
O      33.54400000     23.08600000     20.88300000
C      34.17400000     22.12900000     21.35400000
H      35.44700000     23.25200000     21.96900000
H      33.78490000     21.10330000     21.27270000
