10
pbedef2svp=-283.8463667472 b3lypdef2svp=-284.01856102143 b3lypvdz=-284.24668102052
C      30.21000000     30.50900000     21.65000000
O      29.97800000     31.72600000     21.26900000
N      30.12400000     34.53300000     21.19100000
C      30.05200000     35.04200000     20.00400000
O      30.10500000     36.30500000     19.78800000
H      30.92970000     30.37810000     22.47150000
H      29.78370000     29.62250000     21.15760000
H      29.93800000     33.55900000     21.31800000
H      30.36200000     35.09350000     21.98420000
H      29.86790000     34.38390000     19.14200000
