12
pbedef2svp=-247.9829237771 b3lypdef2svp=-248.14210402241 b3lypvdz=-248.33560272928
N      30.56300000     42.62300000     13.49500000
C      31.19100000     42.01200000     12.33100000
C      30.45900000     40.66600000     12.13000000
O      30.25300000     39.99100000     13.13300000
C      32.67200000     41.71700000     12.50500000
H      30.87700000     42.35700000     14.40600000
H      31.04300000     42.64100000     11.44100000
H      33.20000000     42.65600000     12.72600000
H      32.80100000     41.01800000     13.34500000
H      29.83000000     43.29870000     13.41700000
H      30.21240000     40.39270000     11.09340000
H      33.10360000     41.26910000     11.59780000
