15
pbedef2svp=-378.3911355977 b3lypdef2svp=-378.62429657897 b3lypvdz=-378.92154814948
O      23.57900000     31.32100000      9.55400000
N      22.24100000     31.87300000     11.24100000
C      22.50400000     31.22800000     10.13600000
N      26.21400000     32.09700000      8.77100000
C      26.23500000     30.05800000      7.49700000
C      26.88200000     31.42800000      7.86200000
O      27.90600000     31.71100000      7.26400000
H      21.34100000     31.75600000     11.66200000
H      22.90230000     32.47850000     11.68370000
H      21.73270000     30.53490000      9.76920000
H      25.36900000     31.73600000      9.16600000
H      25.16500000     30.24200000      7.32000000
H      26.58310000     32.98270000      9.05280000
H      26.69280000     29.75830000      6.54270000
H      26.31330000     29.33410000      8.32150000
