14
pbedef2svp=-303.2505363824 b3lypdef2svp=-303.44010576332 b3lypvdz=-303.67527463482
N      40.64200000     33.91600000     16.11200000
C      40.22600000     33.71600000     17.50900000
C      40.44900000     32.27800000     17.94500000
O      39.93600000     31.33600000     17.31500000
N      41.18900000     32.08500000     19.03100000
C      41.82200000     33.18800000     19.81300000
H      39.96500000     33.93300000     15.37700000
H      40.79400000     34.38800000     18.16900000
H      41.10900000     33.65500000     20.50800000
H      42.25100000     33.95800000     19.15500000
H      41.61440000     34.03500000     15.91110000
H      39.16150000     33.98680000     17.56870000
H      41.37360000     31.17950000     19.41310000
H      42.60380000     32.62870000     20.34770000
