14
pbedef2svp=-307.03305999636
C      35.61500000     22.19000000     15.75900000
O      36.53200000     23.04600000     15.72400000
C      35.59600000     26.71500000     15.73600000
C      36.97500000     26.82600000     15.10700000
O      37.57900000     27.92600000     15.15900000
C      35.71500000     26.20300000     17.17200000
H      35.18920000     21.84880000     16.71410000
H      35.21920000     21.71940000     14.84690000
H      35.14500000     27.71800000     15.76300000
H      35.94800000     25.12800000     17.16500000
H      36.51400000     26.74800000     17.69600000
H      34.95080000     26.04660000     15.14690000
H      37.41260000     25.92150000     14.65940000
H      34.75430000     26.37240000     17.68030000
