11
pbedef2svp=-209.94945379015 b3lypdef2svp=-210.08818777555 b3lypvdz=-210.25016416326
N      24.24000000     19.23300000     12.24600000
C      22.92400000     18.58300000     12.02500000
C      23.05900000     17.32600000     11.15400000
O      23.91400000     16.39500000     11.75500000
H      25.09100000     18.79700000     11.95400000
H      22.28300000     19.29200000     11.48000000
H      22.06600000     16.87100000     11.02100000
H      23.46700000     17.60900000     10.17200000
H      23.98400000     15.62600000     11.20200000
H      24.24070000     20.12460000     12.69880000
H      22.41860000     18.33650000     12.97040000
