16
pbedef2svp=-325.26304905963 b3lypdef2svp=-325.47262090556 b3lypvdz=-325.72487074568
C      21.44700000     27.86900000     16.02600000
C      21.32500000     28.81300000     15.00500000
N      19.81000000     29.37800000     18.57800000
C      22.12600000     29.06200000     18.18300000
C      20.83500000     28.62900000     18.90400000
O      20.82100000     27.73400000     19.74900000
C      22.49400000     28.05700000     17.10900000
H      21.97400000     29.67600000     14.99200000
H      19.96200000     30.14700000     17.95600000
H      21.95700000     30.04300000     17.71400000
H      23.42500000     28.39400000     16.63000000
H      22.66300000     27.08400000     17.59400000
H      20.80830000     26.97370000     16.04730000
H      20.57180000     28.68300000     14.21400000
H      18.88390000     29.21880000     18.92010000
H      22.88480000     29.15540000     18.97390000
