9
pbedef2svp=-208.7944953779 b3lypdef2svp=-208.92457068083 b3lypvdz=-209.08807510064
N      41.00100000     29.87800000     11.93100000
C      41.09200000     30.80800000     12.85100000
O      41.82800000     31.80800000     12.68100000
C      41.71800000     30.02200000     10.64300000
H      40.44300000     29.06500000     12.10000000
H      42.79800000     30.00900000     10.85200000
H      40.50330000     30.59340000     13.75510000
H      41.48610000     30.97850000     10.15170000
H      41.48780000     29.12870000     10.04380000
