13
pbedef2svp=-323.03828323475
C      20.82200000     25.91400000      7.33200000
O      21.32300000     26.83000000      8.00800000
O      23.57900000     31.32100000      9.55400000
N      21.67400000     30.03400000      8.19100000
C      21.41900000     30.25300000      9.62000000
C      22.50400000     31.22800000     10.13600000
H      20.28940000     25.09390000      7.83580000
H      20.90630000     25.87100000      6.23610000
H      22.02400000     29.14200000      7.90400000
H      20.41000000     30.65000000      9.80700000
H      21.51690000     30.72820000      7.48850000
H      21.57530000     29.29940000     10.14560000
H      22.28250000     31.77120000     11.06650000
