11
pbedef2svp=-209.94827318047 b3lypdef2svp=-210.0863457913 b3lypvdz=-210.24916610449
C      29.54200000     39.02000000     10.65300000
C      28.11300000     39.04900000     10.01500000
O      27.28000000     39.72200000     10.99600000
N      30.16300000     40.33800000     10.88600000
H      29.47700000     38.47800000     11.60800000
H      28.15100000     39.62800000      9.08100000
H      26.38900000     39.77600000     10.67200000
H      30.35300000     40.96100000     10.12800000
H      30.22710000     38.47380000      9.98800000
H      27.73750000     38.03760000      9.80040000
H      30.38720000     40.58650000     11.82830000
