10
pbedef2svp=-192.74423339793 b3lypdef2svp=-192.87151604436 b3lypvdz=-193.02269913988
C      38.81700000     28.02000000     19.88900000
C      38.42100000     28.04800000     21.34100000
O      37.21300000     28.03600000     21.70400000
C      39.09000000     26.62900000     19.32500000
H      38.00200000     28.46900000     19.30300000
H      39.53200000     25.97200000     20.08900000
H      38.16800000     26.17200000     18.93700000
H      39.74510000     28.57150000     19.67830000
H      39.22070000     28.08320000     22.09540000
H      39.80490000     26.82720000     18.51280000
