10
pbedef2svp=-283.85853924295 b3lypdef2svp=-284.03282971336 b3lypvdz=-284.25949272643
C      28.63800000     35.46100000     12.90000000
O      29.52200000     36.10300000     12.32000000
C      30.49400000     38.26100000      9.72900000
O      30.84900000     38.85000000      8.70600000
N      30.79500000     37.01500000     10.09500000
H      28.61460000     34.39800000     12.61790000
H      27.88010000     35.80790000     13.61780000
H      30.42700000     36.59700000     10.92600000
H      29.80890000     38.80720000     10.39400000
H      31.41480000     36.52850000      9.47920000
