14
pbedef2svp=-158.09557274014 b3lypdef2svp=-158.21614756988 b3lypvdz=-158.33220559286
C      26.23500000     30.05800000      7.49700000
C      26.34400000     29.05000000      8.64500000
C      27.81000000     28.74800000      8.99900000
C      25.49100000     27.77100000      8.28700000
H      25.16500000     30.24200000      7.32000000
H      25.87900000     29.50700000      9.53100000
H      28.22100000     28.06200000      8.24300000
H      28.37700000     29.69100000      8.98500000
H      25.56300000     27.04000000      9.10600000
H      24.43900000     28.06000000      8.14500000
H      25.87600000     27.32100000      7.36000000
H      26.69280000     29.75830000      6.54270000
H      26.69170000     31.02500000      7.75460000
H      27.91980000     28.28560000      9.99100000
