11
pbedef2svp=-118.8670394844 b3lypdef2svp=-118.96009014624 b3lypvdz=-119.04702932586
C      21.18400000     24.26300000     11.69000000
C      22.65000000     24.51600000     12.17200000
C      22.66200000     24.81900000     13.69900000
H      20.53700000     25.08800000     12.02200000
H      23.21600000     23.58600000     12.01300000
H      22.10700000     25.74900000     13.89000000
H      22.18400000     23.98900000     14.23900000
H      20.84000000     23.30620000     12.10980000
H      21.13070000     24.15350000     10.59680000
H      23.16720000     25.32030000     11.62840000
H      23.69790000     24.93390000     14.05070000
