12
pbedef2svp=-247.98417566455 b3lypdef2svp=-248.14371243464 b3lypvdz=-248.33772995348
N      27.36100000     17.95900000      8.55900000
C      28.05400000     16.83500000      9.21000000
C      29.25800000     17.31800000      9.98400000
O      29.93000000     16.47700000     10.60600000
C      28.52300000     15.82000000      8.18200000
H      27.51100000     18.13900000      7.58700000
H      27.36300000     16.33700000      9.90600000
H      29.36700000     15.25300000      8.60200000
H      27.69400000     15.13200000      7.95800000
H      26.74090000     18.54350000      9.08230000
H      29.53900000     18.37370000      9.85540000
H      28.84830000     16.30070000      7.24760000
