19
pbedef2svp=-343.58997484816
C      33.58900000     30.18900000     22.18100000
O      33.58000000     29.00900000     22.49900000
C      34.33800000     29.10300000     26.65000000
N      34.01400000     28.65700000     25.45700000
C      34.50900000     26.07700000     19.36000000
C      33.20600000     26.31100000     20.12200000
N      33.45500000     25.91000000     21.54600000
H      34.42380000     30.68740000     21.66660000
H      32.67090000     30.79060000     22.25370000
H      33.57700000     27.75900000     25.49900000
H      34.91050000     30.04000000     26.71520000
H      34.14820000     28.54850000     27.58080000
H      34.78800000     25.01600000     19.43700000
H      35.30300000     26.69700000     19.80200000
H      32.92400000     27.37300000     20.07200000
H      32.40100000     25.69700000     19.69200000
H      32.62200000     26.04800000     22.08200000
H      33.71700000     24.94500000     21.58000000
H      34.38860000     26.34390000     18.29970000
