23
pbedef2svp=-312.80517936103
C      26.07000000     27.02500000     24.96000000
C      27.55300000     27.35600000     24.69500000
C      27.04300000     24.99200000     19.57100000
C      25.93100000     25.84400000     18.95900000
C      28.76200000     29.57300000     19.90600000
C      27.33100000     29.31700000     20.36400000
O      27.10100000     28.34600000     21.09700000
H      25.61000000     27.84000000     25.53800000
H      25.99900000     26.08600000     25.52900000
H      28.02600000     26.52000000     24.15900000
H      27.62300000     28.26900000     24.08500000
H      25.54450000     26.91350000     24.00010000
H      28.06650000     27.51530000     25.65460000
H      27.96900000     25.58500000     19.54900000
H      27.16400000     24.09800000     18.94200000
H      25.90600000     26.81600000     19.47400000
H      26.88710000     24.65370000     20.60600000
H      26.12640000     26.01570000     17.89020000
H      24.94360000     25.36710000     19.04650000
H      28.81600000     30.60900000     19.54100000
H      29.45240000     29.47150000     20.75640000
H      29.04300000     28.90990000     19.07460000
H      26.59060000     30.07400000     20.06620000
