23
pbedef2svp=-312.79090201078
C      36.73100000     30.57000000     12.64500000
C      35.70800000     30.77600000     13.80600000
C      36.08300000     30.19400000     17.87500000
O      35.04800000     29.70200000     17.39300000
C      34.50900000     26.07700000     19.36000000
C      35.71500000     26.20300000     17.17200000
C      34.34300000     26.44500000     17.89800000
H      36.42300000     31.20600000     11.80200000
H      35.89000000     29.98800000     14.55100000
H      36.79070000     29.52500000     12.30690000
H      37.74640000     30.86450000     12.94880000
H      34.66770000     30.67340000     13.46370000
H      35.82630000     31.74690000     14.30930000
H      36.03110000     30.68130000     18.85980000
H      37.04120000     30.13710000     17.33770000
H      34.78800000     25.01600000     19.43700000
H      35.30300000     26.69700000     19.80200000
H      35.94800000     25.12800000     17.16500000
H      36.51400000     26.74800000     17.69600000
H      34.05700000     27.50400000     17.81100000
H      33.56400000     25.81600000     17.44200000
H      33.57070000     26.24550000     19.90870000
H      35.62940000     26.57130000     16.13900000
