14
pbedef2svp=-303.2668795225 b3lypdef2svp=-303.45705804939 b3lypvdz=-303.69209872748
N      34.73400000     25.82200000     14.94900000
C      35.59600000     26.71500000     15.73600000
C      36.97500000     26.82600000     15.10700000
O      37.57900000     27.92600000     15.15900000
N      37.49900000     25.74300000     14.57100000
C      38.79400000     25.76100000     13.88000000
H      34.36300000     24.99500000     15.37200000
H      35.14500000     27.71800000     15.76300000
H      36.99800000     24.88000000     14.63700000
H      39.53500000     26.22600000     14.54600000
H      34.51330000     26.03060000     13.99620000
H      35.68160000     26.34670000     16.76900000
H      38.74620000     26.36250000     12.96030000
H      39.14480000     24.74290000     13.65570000
