9
pbedef2svp=-204.95961808603 b3lypdef2svp=-205.08553715664 b3lypvdz=-205.24363525937
C      27.13200000     32.42300000     26.57400000
N      27.63000000     33.65600000     26.46100000
N      25.81000000     32.29900000     26.73200000
N      27.87500000     31.31700000     26.44300000
H      26.91600000     34.35400000     26.51200000
H      25.23100000     33.11400000     26.76200000
H      25.40000000     31.39100000     26.82000000
H      27.44700000     30.43800000     26.65100000
H      28.83130000     31.31490000     26.15050000
