14
pbedef2svp=-361.1359883424 b3lypdef2svp=-361.3559864917 b3lypvdz=-361.64160531929
C      39.07600000     34.93100000     29.03100000
O      38.29700000     34.94600000     29.99600000
N      40.29400000     34.41200000     29.04500000
C      40.87300000     33.80200000     30.25300000
C      41.76500000     34.82900000     30.94400000
O      42.94500000     34.99400000     30.58300000
C      41.65100000     32.52900000     29.92300000
H      40.83900000     34.43500000     28.20700000
H      40.05800000     33.53600000     30.94300000
H      41.23700000     32.10900000     28.99400000
H      42.70300000     32.80600000     29.76300000
H      38.78120000     35.34360000     28.05480000
H      41.26790000     35.41060000     31.73440000
H      41.61990000     31.74470000     30.69360000
