12
pbedef2svp=-305.85237339702 b3lypdef2svp=-306.04106215619 b3lypvdz=-306.28582412549
C      35.54100000     21.41800000     10.87100000
O      36.77200000     21.62300000     10.67600000
C      35.59000000     21.94500000     13.30200000
C      35.23800000     23.38200000     12.92000000
O      36.06600000     24.10900000     12.33300000
C      35.06400000     20.95700000     12.25500000
H      36.68700000     21.87000000     13.28900000
H      35.45300000     19.95000000     12.46600000
H      33.96400000     20.93800000     12.28200000
H      34.78600000     21.56440000     10.08450000
H      35.25210000     21.70450000     14.32080000
H      34.21620000     23.68330000     13.19390000
