12
pbedef2svp=-248.02976267727 b3lypdef2svp=-248.18759856458 b3lypvdz=-248.3803455172
C      41.46100000     30.75100000     19.59400000
C      40.16800000     30.02600000     19.91800000
O      39.26400000     30.66200000     20.52100000
C      42.19500000     31.14200000     20.91300000
N      40.05900000     28.75800000     19.60700000
H      42.11200000     30.14800000     18.94400000
H      41.47600000     31.30900000     21.72900000
H      42.91200000     30.36200000     21.21000000
H      41.25790000     31.74700000     19.17360000
H      42.71490000     32.07470000     20.64900000
H      39.21520000     28.25660000     19.79860000
H      40.71650000     28.18600000     19.11660000
