13
pbedef2svp=-265.21444599883
N      19.99300000     20.88400000     14.04900000
C      19.06500000     21.35200000     12.99900000
N      24.24000000     19.23300000     12.24600000
C      24.24100000     20.43600000     12.85700000
O      23.26400000     20.95100000     13.32900000
H      20.50600000     20.03400000     13.92400000
H      19.16200000     20.67100000     12.14100000
H      20.10630000     21.42070000     14.88520000
H      19.33720000     22.35760000     12.64600000
H      18.01610000     21.30240000     13.32660000
H      25.09100000     18.79700000     11.95400000
H      23.35340000     18.79510000     12.09710000
H      25.21610000     20.92100000     13.01190000
