6
pbedef2svp=-169.57497348338 b3lypdef2svp=-169.6775055041 b3lypvdz=-169.81166245012
N      22.09900000     29.16300000      5.60500000
C      21.12700000     28.24000000      5.57400000
O      19.95800000     28.46500000      5.84200000
H      23.03200000     28.85400000      5.42200000
H      21.96560000     30.13540000      5.79670000
H      21.50810000     27.23660000      5.33340000
