16
pbedef2svp=-159.27995742801
C      28.40700000     22.94800000     16.36600000
C      29.00600000     22.04300000     17.44200000
C      25.93100000     25.84400000     18.95900000
C      26.20300000     26.08300000     17.47100000
H      27.34900000     22.68900000     16.21600000
H      28.48600000     23.99800000     16.68500000
H      28.95600000     22.80900000     15.42300000
H      28.90200000     21.00100000     17.10700000
H      28.43100000     22.19000000     18.36800000
H      30.06740000     22.22320000     17.66770000
H      25.90600000     26.81600000     19.47400000
H      25.39600000     26.69700000     17.04400000
H      27.16300000     26.60700000     17.35300000
H      26.24600000     25.11700000     16.94600000
H      26.73110000     25.23090000     19.39940000
H      24.94360000     25.36710000     19.04650000
