10
pbedef2svp=-134.87248661731 b3lypdef2svp=-134.96967796886 b3lypvdz=-135.07019669125
N      23.14100000     29.18700000     19.24100000
C      22.12600000     29.06200000     18.18300000
C      22.49400000     28.05700000     17.10900000
H      23.12400000     28.54900000     20.01100000
H      21.95700000     30.04300000     17.71400000
H      23.42500000     28.39400000     16.63000000
H      22.66300000     27.08400000     17.59400000
H      23.84700000     29.89450000     19.20790000
H      21.20430000     28.75290000     18.69770000
H      21.73530000     27.92080000     16.32420000
