12
pbedef2svp=-248.03484897001 b3lypdef2svp=-248.1931969186 b3lypvdz=-248.38583076402
C      36.73100000     30.57000000     12.64500000
C      38.14800000     30.98100000     13.06900000
O      38.54400000     32.15000000     12.85600000
C      35.70800000     30.77600000     13.80600000
N      38.88300000     30.11000000     13.71300000
H      36.42300000     31.20600000     11.80200000
H      35.89000000     29.98800000     14.55100000
H      38.52700000     29.20100000     13.93100000
H      36.79070000     29.52500000     12.30690000
H      34.66770000     30.67340000     13.46370000
H      35.82630000     31.74690000     14.30930000
H      39.80890000     30.37590000     13.98150000
