14
pbedef2svp=-249.15947196227
N      26.21400000     32.09700000      8.77100000
C      26.77200000     33.43600000      9.19700000
C      31.40900000     32.68000000      6.44600000
O      32.61900000     32.81200000      6.12500000
C      30.50500000     33.88400000      6.51200000
H      25.36900000     31.73600000      9.16600000
H      27.66100000     33.67200000      8.59400000
H      26.72330000     31.58690000      8.07790000
H      27.04930000     33.38190000     10.26010000
H      25.99930000     34.19790000      9.01690000
H      29.59500000     33.63500000      7.07700000
H      30.97270000     31.68690000      6.62880000
H      31.04940000     34.69580000      7.01660000
H      30.21620000     34.23900000      5.51170000
