12
pbedef2svp=-339.15965909969 b3lypdef2svp=-339.36462021624 b3lypvdz=-339.63241489033
O      32.57600000     25.80200000      5.46100000
N      30.31000000     25.45800000      5.38400000
C      31.44000000     26.07900000      5.08000000
N      26.33500000     27.77000000      3.25800000
C      26.91300000     26.63900000      3.53100000
O      27.88600000     26.46300000      4.26300000
H      29.44600000     25.83300000      5.04800000
H      30.29490000     24.62620000      5.93880000
H      31.28000000     26.99650000      4.49470000
H      25.55800000     27.80400000      2.63000000
H      26.67910000     28.60590000      3.68560000
H      26.45330000     25.76780000      3.04140000
