8
pbedef2svp=-79.63758663579 b3lypdef2svp=-79.70270068923 b3lypvdz=-79.76035086411
C      29.60700000     41.18000000     19.46700000
C      29.91900000     40.89000000     20.93800000
H      28.51100000     41.16800000     19.37000000
H      30.99700000     40.68600000     21.01500000
H      29.67500000     41.79500000     21.51400000
H      29.99720000     40.35430000     18.85380000
H      29.94670000     42.16570000     19.11640000
H      29.38740000     40.04640000     21.40240000
