10
pbedef2svp=-134.87769652865 b3lypdef2svp=-134.97508186662 b3lypvdz=-135.07719073207
C      20.26800000     26.58900000      1.65600000
C      19.20200000     25.85700000      0.89100000
N      17.88400000     26.54400000      1.07500000
H      20.17600000     27.66100000      1.42700000
H      21.24600000     26.22300000      1.31100000
H      19.46200000     25.84600000     -0.17800000
H      19.13000000     24.82400000      1.26200000
H      17.17800000     26.05400000      0.56400000
H      17.64600000     26.55400000      2.04600000
H      20.22630000     26.46960000      2.74870000
