10
pbedef2svp=-229.76396578937
C      31.74400000     38.87900000     16.29900000
O      31.73700000     40.25700000     15.82400000
C      30.45900000     40.66600000     12.13000000
O      30.25300000     39.99100000     13.13300000
H      32.36600000     38.76400000     17.19900000
H      32.61800000     40.51000000     15.57300000
H      30.68610000     38.71460000     16.55180000
H      32.11290000     38.22830000     15.49250000
H      30.98010000     41.62410000     12.27310000
H      30.21240000     40.39270000     11.09340000
