11
pbedef2svp=-209.94929761265 b3lypdef2svp=-210.08787767306 b3lypvdz=-210.25007663984
C      28.52300000     15.82000000      8.18200000
O      28.94600000     16.44500000      6.96700000
N      27.36100000     17.95900000      8.55900000
C      28.05400000     16.83500000      9.21000000
H      29.36700000     15.25300000      8.60200000
H      27.69400000     15.13200000      7.95800000
H      29.23100000     15.78000000      6.35100000
H      27.51100000     18.13900000      7.58700000
H      27.36300000     16.33700000      9.90600000
H      26.74090000     18.54350000      9.08230000
H      28.93070000     17.18670000      9.77360000
