16
pbedef2svp=-159.27205285449
C      35.03100000     21.72200000     17.06900000
C      35.66700000     20.38300000     17.44700000
C      32.26200000     20.67000000     20.51400000
C      33.63800000     20.71600000     21.24200000
H      35.24600000     22.46200000     17.85400000
H      35.07400000     19.98200000     18.28200000
H      35.55700000     19.72700000     16.57100000
H      33.94390000     21.57830000     16.98180000
H      35.45680000     22.06320000     16.11390000
H      36.72140000     20.31800000     17.75370000
H      32.31500000     21.45700000     19.74700000
H      33.51900000     20.30000000     22.25300000
H      34.35900000     20.10600000     20.67800000
H      31.48610000     20.98670000     21.22650000
H      32.16500000     19.72420000     19.96070000
H      34.02710000     21.74170000     21.32330000
