15
pbedef2svp=-233.15077148457
C      32.77600000     22.51900000     16.57700000
O      33.23300000     23.65900000     16.38400000
C      31.68400000     26.74900000     13.34200000
C      33.53300000     25.09700000     12.97800000
C      32.06000000     25.25700000     13.36400000
H      31.70620000     22.29040000     16.46200000
H      33.42330000     21.68640000     16.88970000
H      30.62600000     26.86500000     13.61900000
H      32.31300000     27.29600000     14.06000000
H      31.84500000     27.15300000     12.33100000
H      33.61300000     25.28200000     11.89700000
H      31.94400000     24.89900000     14.39800000
H      33.89050000     24.07720000     13.18320000
H      34.18780000     25.81960000     13.48710000
H      31.40290000     24.65200000     12.72210000
