14
pbedef2svp=-249.21436817369
C      25.59400000     21.10900000     13.07200000
C      26.08400000     21.88800000     11.83300000
C      26.54100000     18.73200000      9.25100000
O      26.33300000     18.53600000     10.45700000
N      27.36100000     17.95900000      8.55900000
H      25.51600000     21.80500000     13.92000000
H      26.14900000     21.16800000     11.00400000
H      25.31800000     22.64300000     11.60300000
H      26.33400000     20.32790000     13.30050000
H      24.61890000     20.62400000     12.91710000
H      27.04990000     22.41200000     11.88270000
H      27.51100000     18.13900000      7.58700000
H      26.02170000     19.52920000      8.69890000
H      27.83170000     17.19550000      9.00120000
