11
pbedef2svp=-209.94758792101 b3lypdef2svp=-210.08536171185 b3lypvdz=-210.2483701229
O      22.49500000     34.69000000     10.58900000
N      22.24100000     31.87300000     11.24100000
C      23.21200000     32.76200000     11.89100000
C      22.69900000     34.26700000     11.98500000
H      22.18600000     35.58800000     10.57200000
H      21.34100000     31.75600000     11.66200000
H      24.14700000     32.76300000     11.31200000
H      21.74500000     34.28200000     12.53300000
H      22.44230000     31.37920000     10.39500000
H      23.42580000     32.37470000     12.89810000
H      23.43720000     34.88740000     12.51420000
