14
pbedef2svp=-361.13166999319 b3lypdef2svp=-361.35291334524 b3lypvdz=-361.63851053618
C      28.60500000     33.96500000     12.50300000
C      28.63800000     35.46100000     12.90000000
O      29.52200000     36.10300000     12.32000000
N      27.75100000     35.86700000     13.74000000
C      27.69100000     37.31500000     14.14300000
C      28.46900000     37.47500000     15.42000000
O      28.21300000     36.75300000     16.41100000
H      27.82500000     33.46000000     13.09200000
H      27.09800000     35.21600000     14.12700000
H      28.13900000     37.93800000     13.35500000
H      28.34310000     33.94830000     11.43480000
H      29.57720000     33.50110000     12.72570000
H      26.63020000     37.58090000     14.26120000
H      29.24750000     38.25190000     15.44120000
