16
pbedef2svp=-159.27713645735
C      31.74400000     38.87900000     16.29900000
C      30.22500000     38.64300000     16.66200000
C      30.92500000     34.30400000     17.75300000
C      32.34500000     34.18300000     18.35800000
H      32.36600000     38.76400000     17.19900000
H      30.16200000     37.75100000     17.30200000
H      31.73870000     39.91890000     15.94050000
H      32.11290000     38.22830000     15.49250000
H      29.62730000     38.48370000     15.75240000
H      29.82170000     39.50280000     17.21700000
H      30.79800000     33.52100000     16.99100000
H      30.82500000     35.29300000     17.28200000
H      32.46000000     34.90800000     19.17700000
H      30.13450000     34.19220000     18.50970000
H      32.49840000     33.16000000     18.73210000
H      33.07160000     34.40330000     17.56200000
