17
pbedef2svp=-288.3965269171
C      33.20600000     26.31100000     20.12200000
N      33.45500000     25.91000000     21.54600000
C      34.73800000     30.87500000     21.47300000
C      33.58900000     30.18900000     22.18100000
O      33.58000000     29.00900000     22.49900000
C      34.87600000     30.23700000     20.06600000
H      32.92400000     27.37300000     20.07200000
H      32.40100000     25.69700000     19.69200000
H      32.62200000     26.04800000     22.08200000
H      33.71700000     24.94500000     21.58000000
H      34.14430000     26.14250000     19.57330000
H      34.44500000     31.92400000     21.31900000
H      35.08000000     29.16300000     20.18800000
H      33.92600000     30.37100000     19.52700000
H      35.70020000     30.86360000     22.00590000
H      32.67090000     30.79060000     22.25370000
H      35.68390000     30.68000000     19.46510000
