10
pbedef2svp=-283.85868206234
C      26.88200000     31.42800000      7.86200000
O      27.90600000     31.71100000      7.26400000
C      31.40900000     32.68000000      6.44600000
O      32.61900000     32.81200000      6.12500000
N      30.88400000     31.48500000      6.66600000
H      26.42530000     30.46100000      7.60440000
H      26.32170000     31.98910000      8.62440000
H      29.90500000     31.41600000      6.85800000
H      30.74920000     33.55880000      6.49420000
H      31.43200000     30.64880000      6.64730000
