14
pbedef2svp=-303.2615462282 b3lypdef2svp=-303.45223936312 b3lypvdz=-303.68696178064
N      19.81000000     29.37800000     18.57800000
C      18.44300000     29.14300000     19.08300000
C      18.45300000     28.94100000     20.59100000
O      17.86000000     27.99400000     21.12800000
N      19.17200000     29.80800000     21.24300000
C      19.39900000     29.89400000     22.65500000
H      19.96200000     30.14700000     17.95600000
H      17.83100000     30.03000000     18.86300000
H      19.62500000     30.50400000     20.68600000
H      20.01700000     30.78600000     22.83600000
H      18.42000000     30.02200000     23.13900000
H      20.59200000     28.80650000     18.82670000
H      18.01730000     28.28560000     18.54110000
H      19.89850000     29.04320000     23.14140000
