16
pbedef2svp=-325.21066880682
N      21.67400000     30.03400000      8.19100000
C      21.46600000     30.95300000      7.26100000
O      21.06600000     32.11200000      7.53300000
C      26.13600000     35.34600000      6.64000000
C      25.81000000     35.39200000      5.26700000
C      25.28800000     34.60900000      7.49900000
C      24.14700000     33.96600000      7.03800000
H      22.02400000     29.14200000      7.90400000
H      21.50030000     30.18320000      9.16440000
H      21.78930000     30.66710000      6.24920000
H      27.00600000     35.85800000      7.02300000
H      26.45800000     35.88500000      4.55700000
H      23.51900000     33.41800000      7.72500000
H      24.87610000     34.91010000      4.94210000
H      25.58500000     34.52800000      8.55500000
H      23.88440000     34.01700000      5.97100000
