18
pbedef2svp=-235.27187547779
C      17.86400000     27.97700000     18.34600000
C      18.44300000     29.14300000     19.08300000
C      20.63800000     26.73500000     16.05300000
C      20.36900000     28.64800000     14.00100000
C      19.67700000     26.53900000     15.05100000
C      19.59300000     27.46500000     14.02100000
H      16.84300000     27.78400000     18.70800000
H      17.83500000     28.20100000     17.27000000
H      18.48800000     27.08800000     18.51900000
H      17.83100000     30.03000000     18.86300000
H      19.46170000     29.31810000     18.70670000
H      18.45020000     28.99700000     20.17320000
H      20.75100000     26.00800000     16.84400000
H      20.22700000     29.39700000     13.23600000
H      19.01600000     25.68500000     15.08000000
H      18.91100000     27.27600000     13.20500000
H      21.27670000     27.63030000     16.03170000
H      21.12220000     28.77800000     14.79200000
