16
pbedef2svp=-362.32061254405
C      20.14200000     21.59000000     15.14900000
O      19.49900000     22.64500000     15.32100000
N      19.99300000     20.88400000     14.04900000
C      19.06500000     21.35200000     12.99900000
C      25.59400000     21.10900000     13.07200000
C      24.24100000     20.43600000     12.85700000
O      23.26400000     20.95100000     13.32900000
H      20.50600000     20.03400000     13.92400000
H      19.16200000     20.67100000     12.14100000
H      20.82360000     21.26920000     15.95060000
H      19.33720000     22.35760000     12.64600000
H      18.01610000     21.30240000     13.32660000
H      25.51600000     21.80500000     13.92000000
H      26.33400000     20.32790000     13.30050000
H      25.94320000     21.66420000     12.18890000
H      24.24020000     19.45520000     12.35890000
