14
pbedef2svp=-249.21419789347
C      25.88400000     39.13900000     14.61500000
C      24.34800000     39.29600000     14.64200000
N      30.13200000     40.06900000     18.64200000
C      29.66400000     39.83900000     17.43400000
O      28.85000000     40.56500000     16.85900000
H      26.30200000     39.41600000     15.59400000
H      26.30900000     39.79000000     13.83700000
H      23.94200000     38.86500000     13.71500000
H      23.96100000     38.73700000     15.50600000
H      26.12570000     38.08920000     14.39280000
H      23.99620000     40.33530000     14.71990000
H      30.85500000     39.48300000     19.00900000
H      29.77730000     40.81960000     19.19940000
H      30.06730000     38.97920000     16.87900000
