15
pbedef2svp=-287.1867223606 b3lypdef2svp=-287.37322329385 b3lypvdz=-287.59611380128
N      30.88400000     31.48500000      6.66600000
C      31.67700000     30.27500000      6.63900000
C      31.02200000     29.28800000      5.66500000
O      29.80900000     29.39500000      5.54500000
C      31.56200000     29.68600000      8.04500000
C      32.63100000     29.44400000      9.06000000
H      29.90500000     31.41600000      6.85800000
H      32.72700000     30.46400000      6.36900000
H      30.84400000     30.34400000      8.55700000
H      31.10600000     28.69700000      7.88900000
H      33.02000000     28.42800000      8.89700000
H      31.28060000     32.38780000      6.49980000
H      31.70340000     28.55290000      5.21190000
H      33.48990000     30.13090000      9.03820000
H      32.14020000     29.44760000     10.04440000
