10
pbedef2svp=-552.58436297322 b3lypdef2svp=-552.81393784623 b3lypvdz=-553.06408067101
S      23.93000000     23.95900000      5.90400000
C      24.44700000     23.98400000      7.62000000
C      21.11000000     24.11100000     10.17300000
O      21.84100000     23.19800000      9.68600000
H      23.69300000     23.47500000      8.23800000
H      25.41300000     23.46700000      7.71900000
H      24.55300000     25.02600000      7.95600000
H      24.95960000     24.61090000      5.34690000
H      21.16330000     24.22050000     11.26620000
H      20.41860000     24.75590000      9.61080000
