7
pbedef2svp=-153.52454713542 b3lypdef2svp=-153.62493203227 b3lypvdz=-153.74650932553
C      37.15600000     35.98500000     11.68800000
C      37.19200000     37.36100000     11.03300000
O      37.51900000     38.36000000     11.64500000
H      37.25300000     35.21500000     10.90800000
H      36.19400000     35.86100000     12.20700000
H      37.97230000     35.86190000     12.41500000
H      36.90210000     37.32510000      9.97250000
