15
pbedef2svp=-378.39014094429 b3lypdef2svp=-378.62275533309 b3lypvdz=-378.91973507189
C      30.49400000     38.26100000      9.72900000
O      30.84900000     38.85000000      8.70600000
N      30.79500000     37.01500000     10.09500000
N      27.75100000     35.86700000     13.74000000
C      28.60500000     33.96500000     12.50300000
C      28.63800000     35.46100000     12.90000000
O      29.52200000     36.10300000     12.32000000
H      30.42700000     36.59700000     10.92600000
H      29.80890000     38.80720000     10.39400000
H      31.41480000     36.52850000      9.47920000
H      27.09800000     35.21600000     14.12700000
H      27.82500000     33.46000000     13.09200000
H      27.71110000     36.82960000     14.00790000
H      28.34310000     33.94830000     11.43480000
H      29.57720000     33.50110000     12.72570000
