13
pbedef2svp=-174.09445620765 b3lypdef2svp=-174.21963690431 b3lypvdz=-174.34927372981
N      32.47800000     30.91700000     22.26900000
C      31.20000000     30.32900000     22.78000000
C      30.84700000     30.93100000     24.11800000
C      29.41200000     30.79600000     24.59800000
H      32.49800000     31.87600000     21.98800000
H      31.35500000     29.25000000     22.92500000
H      31.49100000     30.45600000     24.87200000
H      31.07600000     32.00600000     24.06500000
H      28.75300000     31.37500000     23.93500000
H      29.12000000     29.73600000     24.57000000
H      33.31260000     30.37010000     22.20290000
H      30.48030000     30.45990000     21.95850000
H      29.30970000     31.17180000     25.62670000
