18
pbedef2svp=-326.480864616 b3lypdef2svp=-326.69507820089 b3lypvdz=-326.94549883698
C      39.07600000     34.93100000     29.03100000
O      38.29700000     34.94600000     29.99600000
C      39.08000000     36.94100000     27.40600000
N      40.29400000     34.41200000     29.04500000
C      40.87300000     33.80200000     30.25300000
C      41.65100000     32.52900000     29.92300000
C      38.66800000     35.50200000     27.68000000
H      38.22400000     37.57700000     27.67600000
H      39.92700000     37.16400000     28.07100000
H      40.83900000     34.43500000     28.20700000
H      40.05800000     33.53600000     30.94300000
H      41.23700000     32.10900000     28.99400000
H      42.70300000     32.80600000     29.76300000
H      39.13700000     34.87600000     26.90700000
H      39.38550000     37.22990000     26.38950000
H      41.51610000     34.54240000     30.75120000
H      41.61990000     31.74470000     30.69360000
H      37.57780000     35.42420000     27.55620000
