7
pbedef2svp=-153.52152378773 b3lypdef2svp=-153.62062727008 b3lypvdz=-153.74270465611
C      26.85000000     29.02100000      3.89800000
C      26.10000000     29.25300000      5.20200000
O      24.86500000     29.02400000      5.33000000
H      27.91400000     28.87800000      4.13600000
H      26.47150000     28.10150000      3.42760000
H      26.76460000     29.84380000      3.17300000
H      26.72220000     29.58780000      6.04510000
