13
pbedef2svp=-323.11849899126 b3lypdef2svp=-323.31768787618 b3lypvdz=-323.57202908645
C      22.92400000     18.58300000     12.02500000
C      22.22900000     18.24400000     13.32500000
O      20.96300000     18.25300000     13.39500000
C      23.05900000     17.32600000     11.15400000
O      23.91400000     16.39500000     11.75500000
N      22.99700000     17.97800000     14.36600000
H      22.28300000     19.29200000     11.48000000
H      22.06600000     16.87100000     11.02100000
H      23.46700000     17.60900000     10.17200000
H      23.98400000     15.62600000     11.20200000
H      23.99100000     18.00600000     14.25900000
H      23.89930000     19.06470000     12.18880000
H      22.60770000     17.74940000     15.25830000
