14
pbedef2svp=-303.26903251844 b3lypdef2svp=-303.4587857689 b3lypvdz=-303.69384442257
N      29.69400000     29.43600000     21.05400000
C      28.76200000     29.57300000     19.90600000
C      27.33100000     29.31700000     20.36400000
O      27.10100000     28.34600000     21.09700000
C      29.15100000     28.65500000     18.75500000
N      26.43600000     30.23200000     20.00400000
H      29.93800000     28.52400000     21.38400000
H      28.81600000     30.60900000     19.54100000
H      29.23500000     27.64100000     19.17300000
H      28.32300000     28.68600000     18.03100000
H      26.73800000     30.99700000     19.43500000
H      30.08150000     30.24190000     21.50160000
H      30.07520000     28.84280000     18.18880000
H      25.47470000     30.18950000     20.27620000
