18
pbedef2svp=-363.44785716266
C      40.16800000     30.02600000     19.91800000
O      39.26400000     30.66200000     20.52100000
N      38.41900000     30.37300000     23.34100000
C      37.73800000     31.63700000     23.71200000
C      36.01200000     30.86000000     19.22100000
C      36.08300000     30.19400000     17.87500000
O      35.04800000     29.70200000     17.39300000
H      41.10530000     30.55160000     19.68310000
H      40.07650000     28.96140000     19.65690000
H      38.91700000     30.30600000     22.47600000
H      37.65300000     31.71100000     24.80600000
H      38.37820000     29.58820000     23.95940000
H      36.73540000     31.71200000     23.26570000
H      38.30060000     32.50360000     23.33460000
H      35.81700000     31.93400000     19.08500000
H      36.97000000     30.72500000     19.74400000
H      35.20410000     30.41700000     19.82190000
H      37.04120000     30.13710000     17.33770000
