7
pbedef2svp=-153.52456397514 b3lypdef2svp=-153.62440666058 b3lypvdz=-153.74617881005
C      26.54100000     18.73200000      9.25100000
O      26.33300000     18.53600000     10.45700000
C      25.82900000     19.82500000      8.49400000
H      25.66900000     20.69300000      9.15000000
H      27.22310000     18.08900000      8.67540000
H      26.37750000     20.12180000      7.58790000
H      24.86060000     19.47400000      8.10810000
