6
pbedef2svp=-78.40807802177 b3lypdef2svp=-78.46920210633 b3lypvdz=-78.52887990062
C      21.44700000     27.86900000     16.02600000
C      21.32500000     28.81300000     15.00500000
H      21.97400000     29.67600000     14.99200000
H      22.20570000     28.00520000     16.81080000
H      20.80830000     26.97370000     16.04730000
H      20.57180000     28.68300000     14.21400000
