14
pbedef2svp=-303.25373519572 b3lypdef2svp=-303.4434993535 b3lypvdz=-303.67862818298
C      38.81700000     28.02000000     19.88900000
N      41.18900000     32.08500000     19.03100000
C      41.46100000     30.75100000     19.59400000
C      40.16800000     30.02600000     19.91800000
O      39.26400000     30.66200000     20.52100000
N      40.05900000     28.75800000     19.60700000
H      38.00200000     28.46900000     19.30300000
H      42.11200000     30.14800000     18.94400000
H      38.52760000     28.04050000     20.95010000
H      39.01380000     27.01710000     19.48230000
H      40.63190000     32.23030000     18.21340000
H      41.61300000     32.82380000     19.55480000
H      41.97880000     31.02680000     20.52450000
H      40.71650000     28.18600000     19.11660000
