9
pbedef2svp=-208.75105892756 b3lypdef2svp=-208.88270845264 b3lypvdz=-209.04736244873
N      32.76300000     35.83100000     23.09000000
C      34.14500000     35.47200000     23.48100000
C      34.23900000     35.35300000     24.97900000
O      33.70700000     36.19700000     25.72800000
H      32.48200000     36.79100000     23.10200000
H      34.41100000     34.50500000     23.02800000
H      32.10620000     35.12920000     22.81420000
H      34.82450000     36.23770000     23.07850000
H      34.83270000     34.52050000     25.38450000
