16
pbedef2svp=-362.31849274596
N      41.18900000     32.08500000     19.03100000
C      40.44900000     32.27800000     17.94500000
O      39.93600000     31.33600000     17.31500000
C      41.82200000     33.18800000     19.81300000
C      40.26900000     30.50800000     14.11500000
C      41.09200000     30.80800000     12.85100000
O      41.82800000     31.80800000     12.68100000
H      41.10900000     33.65500000     20.50800000
H      42.25100000     33.95800000     19.15500000
H      41.37360000     31.17950000     19.41310000
H      40.28750000     33.31930000     17.62930000
H      42.60380000     32.62870000     20.34770000
H      40.23000000     31.41000000     14.74400000
H      39.25060000     30.21550000     13.81960000
H      40.79390000     29.70730000     14.65650000
H      41.01570000     30.02790000     12.07930000
