20
pbedef2svp=-310.61357210784
C      31.74400000     38.87900000     16.29900000
O      31.73700000     40.25700000     15.82400000
O      33.17400000     43.06700000     16.26500000
C      32.97900000     43.91800000     17.44500000
C      32.67200000     41.71700000     12.50500000
C      33.28000000     41.08600000     11.22700000
H      32.36600000     38.76400000     17.19900000
H      32.61800000     40.51000000     15.57300000
H      30.68610000     38.71460000     16.55180000
H      32.11290000     38.22830000     15.49250000
H      34.10300000     42.97400000     16.09100000
H      33.35300000     44.93600000     17.26300000
H      31.88170000     43.93350000     17.52110000
H      33.46820000     43.48580000     18.33040000
H      33.20000000     42.65600000     12.72600000
H      32.80100000     41.01800000     13.34500000
H      32.75600000     40.14700000     10.99400000
H      33.17300000     41.78500000     10.38400000
H      31.60030000     41.93050000     12.37910000
H      34.34620000     40.87950000     11.40180000
