11
pbedef2svp=-118.86766372269 b3lypdef2svp=-118.96074355868 b3lypvdz=-119.04768187227
C      23.37600000     25.64500000     11.40900000
C      22.65000000     24.51600000     12.17200000
C      22.66200000     24.81900000     13.69900000
H      24.39600000     25.75900000     11.80600000
H      23.42500000     25.39200000     10.34000000
H      22.82500000     26.58800000     11.53800000
H      23.21600000     23.58600000     12.01300000
H      22.10700000     25.74900000     13.89000000
H      22.18400000     23.98900000     14.23900000
H      21.61880000     24.33800000     11.83300000
H      23.69790000     24.93390000     14.05070000
