6
pbedef2svp=-169.57171971196 b3lypdef2svp=-169.67454346533 b3lypvdz=-169.80838686882
O      29.80900000     29.39500000      5.54500000
N      31.83400000     28.41200000      5.12500000
C      31.02200000     29.28800000      5.66500000
H      32.82200000     28.45600000      5.27400000
H      31.42440000     27.69750000      4.55790000
H      31.49180000     29.99600000      6.36360000
