14
pbedef2svp=-361.13983404665 b3lypdef2svp=-361.36119352754 b3lypvdz=-361.64666075105
C      28.97800000     43.96000000     14.67800000
C      29.60400000     43.50700000     13.39300000
O      29.21900000     43.98100000     12.30100000
N      30.56300000     42.62300000     13.49500000
C      31.19100000     42.01200000     12.33100000
C      30.45900000     40.66600000     12.13000000
O      30.25300000     39.99100000     13.13300000
H      27.99600000     43.47100000     14.76400000
H      28.84100000     45.05000000     14.61900000
H      30.87700000     42.35700000     14.40600000
H      31.04300000     42.64100000     11.44100000
H      29.54320000     43.74170000     15.59610000
H      32.26270000     41.79850000     12.45690000
H      30.21240000     40.39270000     11.09340000
