18
pbedef2svp=-272.39076833806
C      36.01200000     30.86000000     19.22100000
C      36.08300000     30.19400000     17.87500000
O      35.04800000     29.70200000     17.39300000
C      40.22600000     33.71600000     17.50900000
C      38.69300000     34.10600000     17.59500000
C      38.14600000     33.93200000     19.02700000
H      35.81700000     31.93400000     19.08500000
H      36.97000000     30.72500000     19.74400000
H      35.20410000     30.41700000     19.82190000
H      37.04120000     30.13710000     17.33770000
H      40.79400000     34.38800000     18.16900000
H      38.14400000     33.41300000     16.94100000
H      37.08200000     34.21100000     19.05000000
H      38.25700000     32.88200000     19.33700000
H      38.70900000     34.57900000     19.71600000
H      40.53700000     33.86550000     16.46450000
H      40.38750000     32.67470000     17.82470000
H      38.53620000     35.12310000     17.20650000
