8
pbedef2svp=-79.63846608916 b3lypdef2svp=-79.70374118182 b3lypvdz=-79.76135924973
C      20.26800000     26.58900000      1.65600000
C      19.20200000     25.85700000      0.89100000
H      20.17600000     27.66100000      1.42700000
H      21.24600000     26.22300000      1.31100000
H      19.46200000     25.84600000     -0.17800000
H      19.13000000     24.82400000      1.26200000
H      20.22630000     26.46960000      2.74870000
H      18.23390000     26.36160000      1.02610000
