13
pbedef2svp=-323.03523132676
C      24.18400000     16.01600000     16.61900000
O      25.30300000     15.89400000     17.15200000
C      28.37500000     17.99900000     16.88700000
O      29.32600000     18.78600000     16.69000000
N      29.34000000     17.59400000     19.07600000
C      28.10800000     17.43900000     18.27600000
H      23.65580000     16.97670000     16.70810000
H      23.65440000     15.22930000     16.06170000
H      29.44000000     18.40200000     19.65700000
H      27.85100000     16.37300000     18.19200000
H      27.64840000     17.73860000     16.10330000
H      30.07790000     16.91940000     19.05720000
H      27.25840000     17.97950000     18.71880000
