15
pbedef2svp=-287.25987323634 b3lypdef2svp=-287.44621065164 b3lypvdz=-287.66770606581
C      19.06500000     21.35200000     12.99900000
C      19.44200000     22.74500000     12.51000000
O      18.57100000     23.61000000     12.28900000
C      17.58600000     21.28200000     13.46100000
N      20.71700000     22.96400000     12.26000000
C      21.18400000     24.26300000     11.69000000
H      19.16200000     20.67100000     12.14100000
H      17.45300000     20.36800000     14.05800000
H      17.37700000     22.16200000     14.08700000
H      21.38500000     22.24600000     12.45600000
H      20.53700000     25.08800000     12.02200000
H      19.75590000     21.00360000     13.78080000
H      16.85880000     21.26470000     12.63590000
H      21.13070000     24.15350000     10.59680000
H      22.21520000     24.44100000     12.02900000
