14
pbedef2svp=-303.2249965132 b3lypdef2svp=-303.41735675434 b3lypvdz=-303.65701012249
N      28.51900000     13.96700000     21.55000000
C      27.60300000     14.42300000     20.65500000
N      27.47900000     13.73300000     19.53700000
C      28.37500000     17.99900000     16.88700000
O      29.32600000     18.78600000     16.69000000
C      28.10800000     17.43900000     18.27600000
H      29.05600000     13.14900000     21.34300000
H      28.65600000     14.45000000     22.41500000
H      28.09800000     12.94800000     19.51000000
H      27.07040000     15.35420000     20.89840000
H      27.85100000     16.37300000     18.19200000
H      27.64840000     17.73860000     16.10330000
H      29.02550000     17.55440000     18.87180000
H      27.25840000     17.97950000     18.71880000
