5
pbedef2svp=-40.41433146634 b3lypdef2svp=-40.45120458457 b3lypvdz=-40.47975182044
C      22.41800000     17.63800000     15.69300000
H      21.81600000     16.72700000     15.56300000
H      22.84630000     17.88950000     14.71150000
H      21.73010000     18.42720000     16.03050000
H      23.17780000     17.41440000     16.45640000
