16
pbedef2svp=-159.27786022981
C      25.11200000     24.88000000      3.64900000
C      25.35300000     24.86000000      5.13400000
C      29.90300000     24.59000000      7.66500000
C      28.47600000     25.13500000      7.70500000
H      24.23300000     25.51000000      3.45100000
H      24.90700000     23.85100000      3.31900000
H      26.29500000     24.33800000      5.35600000
H      25.40300000     25.88800000      5.52200000
H      25.95510000     25.26940000      3.05940000
H      24.50780000     24.32480000      5.59140000
H      29.89100000     23.63600000      8.21200000
H      28.20500000     25.37800000      8.74300000
H      28.41300000     26.04300000      7.08700000
H      27.78300000     24.37600000      7.31300000
H      30.17450000     24.34680000      6.62710000
H      30.60400000     25.25220000      8.19420000
