12
pbedef2svp=-247.95836357098 b3lypdef2svp=-248.11672328746 b3lypvdz=-248.31081399217
N      41.18900000     32.08500000     19.03100000
C      41.46100000     30.75100000     19.59400000
C      40.16800000     30.02600000     19.91800000
O      39.26400000     30.66200000     20.52100000
C      41.82200000     33.18800000     19.81300000
H      42.11200000     30.14800000     18.94400000
H      41.10900000     33.65500000     20.50800000
H      42.25100000     33.95800000     19.15500000
H      40.63190000     32.23030000     18.21340000
H      41.97880000     31.02680000     20.52450000
H      40.07650000     28.96140000     19.65690000
H      42.60380000     32.62870000     20.34770000
