17
pbedef2svp=-342.5003475486 b3lypdef2svp=-342.71725971281 b3lypvdz=-342.98140705879
N      31.51000000     18.93600000     12.85200000
C      31.39800000     19.06400000     14.28600000
C      31.59300000     20.55300000     14.65500000
O      32.15900000     21.31100000     13.86100000
C      32.49200000     18.19300000     14.99500000
C      32.35200000     16.70000000     14.63000000
N      31.11300000     20.86300000     15.86000000
H      32.38900000     18.66700000     12.45900000
H      30.40500000     18.73500000     14.62700000
H      32.40300000     18.31600000     16.08500000
H      33.13400000     16.12100000     15.14400000
H      31.36200000     16.33700000     14.94300000
H      32.46000000     16.57700000     13.54200000
H      30.62600000     20.16900000     16.39000000
H      30.73940000     19.10690000     12.23800000
H      33.44980000     18.59970000     14.63820000
H      31.23290000     21.77950000     16.24150000
