13
pbedef2svp=-323.03481633134
C      20.83500000     28.62900000     18.90400000
O      20.82100000     27.73400000     19.74900000
C      21.55000000     26.79600000     23.13300000
C      23.04600000     27.08700000     22.91300000
O      23.38300000     27.62700000     21.87000000
N      20.80100000     27.93100000     22.57800000
H      21.75670000     28.93810000     18.38930000
H      19.97480000     29.25760000     18.63040000
H      21.34400000     26.67500000     24.20700000
H      20.84300000     28.09900000     21.59300000
H      21.32540000     25.86490000     22.59200000
H      23.74860000     26.78370000     23.70320000
H      20.25100000     28.54230000     23.14710000
