16
pbedef2svp=-159.27813431029
C      25.59400000     21.10900000     13.07200000
C      26.08400000     21.88800000     11.83300000
C      21.18400000     24.26300000     11.69000000
C      22.65000000     24.51600000     12.17200000
H      25.51600000     21.80500000     13.92000000
H      26.14900000     21.16800000     11.00400000
H      25.31800000     22.64300000     11.60300000
H      26.33400000     20.32790000     13.30050000
H      24.61890000     20.62400000     12.91710000
H      27.04990000     22.41200000     11.88270000
H      20.53700000     25.08800000     12.02200000
H      23.21600000     23.58600000     12.01300000
H      20.84000000     23.30620000     12.10980000
H      21.13070000     24.15350000     10.59680000
H      22.65850000     24.73010000     13.25090000
H      23.16720000     25.32030000     11.62840000
