5
pbedef2svp=-40.41137866601 b3lypdef2svp=-40.44804875261 b3lypvdz=-40.47661072712
C      39.80800000     32.99400000      9.23300000
H      40.65200000     33.09000000      8.53400000
H      40.03650000     32.07410000      9.79130000
H      39.82940000     33.93840000      9.79660000
H      38.94160000     32.85380000      8.56990000
