8
pbedef2svp=-228.65005631831 b3lypdef2svp=-228.78923895539 b3lypvdz=-228.97163828685
C      23.46100000     17.33100000     16.74100000
C      24.18400000     16.01600000     16.61900000
O      25.30300000     15.89400000     17.15200000
O      23.57200000     15.10700000     15.97500000
H      24.21600000     18.13000000     16.70200000
H      22.96200000     17.34600000     17.72100000
H      24.10000000     14.31700000     15.96200000
H      22.70120000     17.55460000     15.97760000
