15
pbedef2svp=-233.15130111272
C      31.59300000     20.55300000     14.65500000
O      32.15900000     21.31100000     13.86100000
C      31.15200000     24.42100000     12.47700000
C      33.53300000     25.09700000     12.97800000
C      32.06000000     25.25700000     13.36400000
H      31.45430000     19.49380000     14.39250000
H      31.19710000     20.80870000     15.64890000
H      30.10600000     24.56300000     12.78500000
H      31.27200000     24.73600000     11.43000000
H      31.42200000     23.35900000     12.57400000
H      33.61300000     25.28200000     11.89700000
H      31.94400000     24.89900000     14.39800000
H      33.89050000     24.07720000     13.18320000
H      34.18780000     25.81960000     13.48710000
H      31.79120000     26.32350000     13.34830000
