15
pbedef2svp=-378.3727760237
N      31.69700000     18.31100000     20.40600000
C      31.56800000     16.96200000     19.82500000
C      32.12800000     19.36400000     19.75000000
O      32.54600000     19.31700000     18.55800000
N      31.11300000     20.86300000     15.86000000
C      31.59300000     20.55300000     14.65500000
O      32.15900000     21.31100000     13.86100000
H      31.43900000     18.43200000     21.36400000
H      32.42200000     16.80400000     19.15000000
H      31.61200000     16.23500000     20.64900000
H      30.64790000     16.76740000     19.25440000
H      32.22500000     20.30980000     20.30330000
H      30.62600000     20.16900000     16.39000000
H      31.23290000     21.77950000     16.24150000
H      31.45430000     19.49380000     14.39250000
