16
pbedef2svp=-362.30116329623 b3lypdef2svp=-362.53062129614 b3lypvdz=-362.81560896519
C      28.63800000     35.46100000     12.90000000
O      29.52200000     36.10300000     12.32000000
C      32.99500000     35.88300000      9.93400000
C      30.49400000     38.26100000      9.72900000
O      30.84900000     38.85000000      8.70600000
N      30.79500000     37.01500000     10.09500000
C      31.72000000     36.28900000      9.17600000
H      28.61460000     34.39800000     12.61790000
H      27.88010000     35.80790000     13.61780000
H      33.82000000     36.38500000      9.40700000
H      30.42700000     36.59700000     10.92600000
H      32.03600000     37.01200000      8.41000000
H      33.21760000     34.80790000      9.86670000
H      33.07410000     36.22850000     10.97530000
H      29.80890000     38.80720000     10.39400000
H      31.16040000     35.50050000      8.65150000
