18
pbedef2svp=-326.47293744394 b3lypdef2svp=-326.68658026761 b3lypvdz=-326.93753324436
C      39.08000000     36.94100000     27.40600000
C      35.16100000     34.17400000     26.89600000
C      36.67100000     34.29600000     27.08900000
O      37.30500000     33.23300000     26.79500000
C      34.71700000     32.76000000     27.28600000
N      37.19700000     35.39700000     27.51300000
C      38.66800000     35.50200000     27.68000000
H      38.22400000     37.57700000     27.67600000
H      39.92700000     37.16400000     28.07100000
H      34.63100000     34.92600000     27.50000000
H      33.77000000     32.82600000     27.84100000
H      34.56500000     32.17100000     26.37000000
H      36.61300000     36.17900000     27.72900000
H      39.13700000     34.87600000     26.90700000
H      39.38550000     37.22990000     26.38950000
H      34.98910000     34.33030000     25.82080000
H      35.46230000     32.25160000     27.91540000
H      38.96280000     35.08940000     28.65620000
