12
pbedef2svp=-193.92080427467
C      28.46900000     37.47500000     15.42000000
O      28.21300000     36.75300000     16.41100000
C      30.92500000     34.30400000     17.75300000
C      32.34500000     34.18300000     18.35800000
H      27.89990000     37.35800000     14.48590000
H      29.24750000     38.25190000     15.44120000
H      30.79800000     33.52100000     16.99100000
H      30.82500000     35.29300000     17.28200000
H      32.46000000     34.90800000     19.17700000
H      30.13450000     34.19220000     18.50970000
H      32.49840000     33.16000000     18.73210000
H      33.07160000     34.40330000     17.56200000
