13
pbedef2svp=-323.09476364668 b3lypdef2svp=-323.29813464742 b3lypvdz=-323.55390526428
C      24.10100000     30.14900000     19.19600000
O      24.19600000     30.94800000     18.28700000
N      25.62100000     32.94500000     16.95000000
C      25.14900000     31.60900000     14.98000000
C      25.69800000     32.87600000     15.66900000
O      26.15800000     33.73000000     14.89400000
H      24.77440000     30.16420000     20.06570000
H      23.32440000     29.37080000     19.23240000
H      25.18900000     32.20800000     17.47000000
H      24.28500000     31.20800000     15.53000000
H      25.99730000     33.74220000     17.42210000
H      24.87990000     31.91780000     13.95910000
H      25.97710000     30.88500000     14.97070000
