21
pbedef2svp=-344.85942347074
N      28.26000000     33.94300000     11.09600000
C      28.60500000     33.96500000     12.50300000
C      28.11300000     39.04900000     10.01500000
C      27.58800000     37.63500000      9.71500000
C      30.95500000     35.21100000      8.45900000
O      30.02500000     34.61800000      9.04000000
N      31.24400000     34.98600000      7.19700000
H      28.87600000     34.37900000     10.44000000
H      27.82500000     33.46000000     13.09200000
H      27.42560000     33.50580000     10.76040000
H      28.62840000     35.02800000     12.78510000
H      29.57720000     33.50110000     12.72570000
H      28.15100000     39.62800000      9.08100000
H      26.58500000     37.70300000      9.26900000
H      28.26800000     37.13300000      9.01200000
H      27.53600000     37.05800000     10.65000000
H      29.11730000     39.02860000     10.46340000
H      27.48210000     39.55870000     10.75800000
H      31.93100000     35.53000000      6.71500000
H      31.51460000     35.99950000      8.98350000
H      30.74910000     34.24800000      6.73830000
