16
pbedef2svp=-271.20306670257 b3lypdef2svp=-271.38715321206 b3lypvdz=-271.59572754676
C      26.82600000     24.52100000     21.01200000
C      27.99400000     23.78100000     21.64300000
O      28.90400000     24.44400000     22.09800000
C      27.04300000     24.99200000     19.57100000
C      25.93100000     25.84400000     18.95900000
C      24.57700000     25.19000000     19.07900000
H      25.96700000     23.83400000     21.00400000
H      27.96900000     25.58500000     19.54900000
H      27.16400000     24.09800000     18.94200000
H      25.90600000     26.81600000     19.47400000
H      23.81400000     25.84000000     18.62600000
H      24.59000000     24.22100000     18.55800000
H      24.33900000     25.03100000     20.14100000
H      26.55630000     25.39350000     21.62530000
H      27.95110000     22.68180000     21.64710000
H      26.12640000     26.01570000     17.89020000
