15
pbedef2svp=-175.28090380641
C      26.77200000     33.43600000      9.19700000
C      25.69500000     34.49800000      8.94600000
N      22.24100000     31.87300000     11.24100000
C      23.21200000     32.76200000     11.89100000
H      27.66100000     33.67200000      8.59400000
H      24.80600000     34.23900000      9.53900000
H      26.08400000     35.47300000      9.27400000
H      26.36600000     32.46180000      8.88710000
H      27.04930000     33.38190000     10.26010000
H      25.39800000     34.57900000      7.89000000
H      21.34100000     31.75600000     11.66200000
H      24.14700000     32.76300000     11.31200000
H      22.44230000     31.37920000     10.39500000
H      23.42580000     32.37470000     12.89810000
H      22.85770000     33.80140000     11.95590000
