22
pbedef2svp=-328.78780109908
C      29.18300000     39.72200000     21.58100000
C      27.70000000     39.72100000     21.22800000
C      30.05200000     35.04200000     20.00400000
O      30.10500000     36.30500000     19.78800000
C      31.74400000     38.87900000     16.29900000
N      29.42600000     38.43000000     15.44600000
C      30.22500000     38.64300000     16.66200000
H      29.62800000     38.78600000     21.21200000
H      27.20800000     38.86400000     21.71100000
H      27.23900000     40.65500000     21.58100000
H      27.58300000     39.64300000     20.13700000
H      29.71460000     40.56560000     21.11660000
H      29.27350000     39.74230000     22.67710000
H      29.86790000     34.38390000     19.14200000
H      30.11320000     34.60920000     21.01340000
H      32.36600000     38.76400000     17.19900000
H      29.59100000     38.99300000     14.63600000
H      30.16200000     37.75100000     17.30200000
H      31.73870000     39.91890000     15.94050000
H      32.11290000     38.22830000     15.49250000
H      28.71830000     37.72380000     15.42680000
H      29.82170000     39.50280000     17.21700000
