6
pbedef2svp=-169.57239934726 b3lypdef2svp=-169.67521488496 b3lypvdz=-169.80927156679
O      28.44900000     20.67400000      8.36000000
N      26.55900000     20.22000000      7.28800000
C      27.81900000     20.60900000      7.31600000
H      26.06040000     19.95020000      8.11180000
H      25.98970000     20.14450000      6.46940000
H      28.28810000     20.84830000      6.35030000
