19
pbedef2svp=-310.37986502151
C      26.13600000     35.34600000      6.64000000
C      25.81000000     35.39200000      5.26700000
C      30.50500000     33.88400000      6.51200000
C      31.40900000     32.68000000      6.44600000
O      32.61900000     32.81200000      6.12500000
C      30.09100000     34.39300000      5.07800000
C      29.42000000     35.75600000      5.11900000
H      27.00600000     35.85800000      7.02300000
H      26.45800000     35.88500000      4.55700000
H      25.47640000     34.77280000      7.30810000
H      24.87610000     34.91010000      4.94210000
H      29.59500000     33.63500000      7.07700000
H      29.47000000     33.64700000      4.56000000
H      29.15200000     36.06400000      4.09800000
H      28.51000000     35.69800000      5.73500000
H      30.11200000     36.49200000      5.55400000
H      31.04940000     34.69580000      7.01660000
H      30.97270000     31.68690000      6.62880000
H      31.09520000     34.48230000      4.63800000
