13
pbedef2svp=-265.22053712734 b3lypdef2svp=-265.39060169607 b3lypvdz=-265.59841790296
N      34.91400000     24.94400000      6.44100000
C      34.79300000     24.26400000      7.76700000
C      35.54100000     21.41800000     10.87100000
O      36.77200000     21.62300000     10.67600000
N      34.62800000     21.59500000      9.92000000
H      34.93500000     24.25700000      5.71400000
H      34.13000000     25.55000000      6.30400000
H      35.65600000     23.59600000      7.90900000
H      33.86500000     23.67300000      7.78500000
H      34.76770000     24.99820000      8.58570000
H      34.90700000     21.90100000      9.01000000
H      33.66300000     21.42200000     10.11500000
H      35.19910000     21.08760000     11.86290000
