12
pbedef2svp=-248.03920189237 b3lypdef2svp=-248.19712329347 b3lypvdz=-248.3896445146
N      30.99100000     42.57100000     17.99800000
C      29.60700000     41.18000000     19.46700000
C      30.07500000     42.53800000     18.98400000
O      29.58600000     43.57000000     19.48300000
C      29.91900000     40.89000000     20.93800000
H      31.36100000     41.73700000     17.58800000
H      28.51100000     41.16800000     19.37000000
H      30.99700000     40.68600000     21.01500000
H      29.67500000     41.79500000     21.51400000
H      31.27780000     43.48210000     17.70190000
H      29.99720000     40.35430000     18.85380000
H      29.38740000     40.04640000     21.40240000
