8
pbedef2svp=-79.63610427958 b3lypdef2svp=-79.70122470326 b3lypvdz=-79.75882555642
C      20.08100000     24.77300000      8.03300000
C      18.59900000     24.73600000      7.72700000
H      20.52200000     23.82600000      7.68800000
H      18.12100000     25.48200000      8.37800000
H      18.48300000     25.03900000      6.67600000
H      20.23580000     24.84820000      9.11950000
H      20.61360000     25.59310000      7.52920000
H      18.03730000     23.79840000      7.85160000
