18
pbedef2svp=-326.4810600174 b3lypdef2svp=-326.69591568398 b3lypvdz=-326.94630908667
C      28.60500000     33.96500000     12.50300000
C      28.63800000     35.46100000     12.90000000
O      29.52200000     36.10300000     12.32000000
N      27.75100000     35.86700000     13.74000000
C      27.69100000     37.31500000     14.14300000
C      26.21900000     37.68400000     14.30700000
C      25.88400000     39.13900000     14.61500000
H      27.82500000     33.46000000     13.09200000
H      27.09800000     35.21600000     14.12700000
H      28.13900000     37.93800000     13.35500000
H      25.70800000     37.42000000     13.36900000
H      25.81700000     37.07300000     15.12800000
H      26.30200000     39.41600000     15.59400000
H      26.30900000     39.79000000     13.83700000
H      28.34310000     33.94830000     11.43480000
H      29.57720000     33.50110000     12.72570000
H      28.26010000     37.43200000     15.07710000
H      24.78990000     39.25080000     14.63420000
