5
pbedef2svp=-189.41072966391 b3lypdef2svp=-189.52273200593 b3lypvdz=-189.67563469186
C      37.19200000     37.36100000     11.03300000
O      37.51900000     38.36000000     11.64500000
O      36.86100000     37.32000000      9.82200000
H      36.90400000     38.19400000      9.45200000
H      37.16600000     36.36810000     11.50570000
