12
pbedef2svp=-339.15211603261 b3lypdef2svp=-339.35502592826 b3lypvdz=-339.6241921189
C      20.14200000     21.59000000     15.14900000
O      19.49900000     22.64500000     15.32100000
N      19.99300000     20.88400000     14.04900000
C      22.22900000     18.24400000     13.32500000
O      20.96300000     18.25300000     13.39500000
N      22.99700000     17.97800000     14.36600000
H      20.50600000     20.03400000     13.92400000
H      20.82360000     21.26920000     15.95060000
H      19.36490000     21.20080000     13.33830000
H      23.99100000     18.00600000     14.25900000
H      22.73440000     18.49050000     12.37960000
H      22.60770000     17.74940000     15.25830000
