15
pbedef2svp=-233.14456314639
C      31.40900000     32.68000000      6.44600000
O      32.61900000     32.81200000      6.12500000
C      32.99500000     35.88300000      9.93400000
C      33.30600000     34.38100000      9.84000000
C      33.10900000     36.38100000     11.43500000
H      30.74920000     33.55880000      6.49420000
H      30.97270000     31.68690000      6.62880000
H      33.82000000     36.38500000      9.40700000
H      32.43400000     33.80800000     10.18800000
H      33.52200000     34.12000000      8.79300000
H      34.05800000     36.03000000     11.86700000
H      33.08000000     37.48000000     11.46000000
H      32.26900000     35.97900000     12.02000000
H      32.08300000     36.17340000      9.39180000
H      34.17690000     34.13080000     10.46360000
