14
pbedef2svp=-303.25499547782 b3lypdef2svp=-303.4449884991 b3lypvdz=-303.68008589555
C      30.95500000     35.21100000      8.45900000
O      30.02500000     34.61800000      9.04000000
N      31.24400000     34.98600000      7.19700000
C      30.50500000     33.88400000      6.51200000
N      30.79500000     37.01500000     10.09500000
C      31.72000000     36.28900000      9.17600000
H      31.93100000     35.53000000      6.71500000
H      29.59500000     33.63500000      7.07700000
H      30.42700000     36.59700000     10.92600000
H      32.03600000     37.01200000      8.41000000
H      31.16480000     33.00520000      6.46380000
H      30.21620000     34.23900000      5.51170000
H      30.56920000     37.94970000      9.82040000
H      32.63200000     35.99860000      9.71820000
