7
pbedef2svp=-95.63848190097 b3lypdef2svp=-95.70793890362 b3lypvdz=-95.77932076616
N      38.88300000     30.11000000     13.71300000
C      40.26900000     30.50800000     14.11500000
H      38.52700000     29.20100000     13.93100000
H      40.23000000     31.41000000     14.74400000
H      38.32150000     30.77540000     13.22100000
H      40.85770000     30.72260000     13.21090000
H      40.79390000     29.70730000     14.65650000
