17
pbedef2svp=-342.49948970762 b3lypdef2svp=-342.71668144239 b3lypvdz=-342.98063033227
N      30.16300000     40.33800000     10.88600000
C      29.54200000     39.02000000     10.65300000
C      30.49400000     38.26100000      9.72900000
O      30.84900000     38.85000000      8.70600000
C      28.11300000     39.04900000     10.01500000
C      27.58800000     37.63500000      9.71500000
N      30.79500000     37.01500000     10.09500000
H      30.35300000     40.96100000     10.12800000
H      29.47700000     38.47800000     11.60800000
H      28.15100000     39.62800000      9.08100000
H      26.58500000     37.70300000      9.26900000
H      28.26800000     37.13300000      9.01200000
H      27.53600000     37.05800000     10.65000000
H      30.42700000     36.59700000     10.92600000
H      30.38720000     40.58650000     11.82830000
H      27.48210000     39.55870000     10.75800000
H      31.41480000     36.52850000      9.47920000
