14
pbedef2svp=-303.27753422752 b3lypdef2svp=-303.46651046805 b3lypvdz=-303.7020710734
N      24.24000000     19.23300000     12.24600000
C      22.92400000     18.58300000     12.02500000
C      22.22900000     18.24400000     13.32500000
O      20.96300000     18.25300000     13.39500000
C      23.05900000     17.32600000     11.15400000
N      22.99700000     17.97800000     14.36600000
H      25.09100000     18.79700000     11.95400000
H      22.28300000     19.29200000     11.48000000
H      22.06600000     16.87100000     11.02100000
H      23.46700000     17.60900000     10.17200000
H      23.99100000     18.00600000     14.25900000
H      24.24070000     20.12460000     12.69880000
H      23.73100000     16.59430000     11.62630000
H      22.60770000     17.74940000     15.25830000
