9
pbedef2svp=-154.71804924217 b3lypdef2svp=-154.82427845042 b3lypvdz=-154.94442695758
C      21.63700000     28.92300000     10.35300000
O      20.54400000     28.04700000     10.05900000
C      21.41900000     30.25300000      9.62000000
H      22.57800000     28.46500000     10.01500000
H      21.68500000     29.10200000     11.43700000
H      20.74700000     27.53500000      9.28500000
H      20.41000000     30.65000000      9.80700000
H      21.61010000     30.08890000      8.54920000
H      22.19030000     30.94610000      9.98680000
