17
pbedef2svp=-288.45319040403
C      40.99600000     29.39900000     14.86500000
C      42.44500000     29.84800000     15.18200000
N      41.18900000     32.08500000     19.03100000
C      40.22600000     33.71600000     17.50900000
C      40.44900000     32.27800000     17.94500000
O      39.93600000     31.33600000     17.31500000
H      40.46600000     29.18400000     15.80400000
H      41.02200000     28.49200000     14.24300000
H      43.02100000     29.92200000     14.24800000
H      42.42600000     30.82900000     15.68000000
H      40.47110000     30.19970000     14.32350000
H      42.91390000     29.10660000     15.84570000
H      40.79400000     34.38800000     18.16900000
H      41.37360000     31.17950000     19.41310000
H      41.61300000     32.82380000     19.55480000
H      40.53700000     33.86550000     16.46450000
H      39.16150000     33.98680000     17.56870000
