15
pbedef2svp=-378.38185179525
N      23.88000000     26.72700000     23.85100000
C      23.04600000     27.08700000     22.91300000
O      23.38300000     27.62700000     21.87000000
C      25.34900000     26.87200000     23.64300000
N      23.14100000     29.18700000     19.24100000
C      24.10100000     30.14900000     19.19600000
O      24.19600000     30.94800000     18.28700000
H      23.53200000     26.35300000     24.71100000
H      25.55800000     27.73800000     22.99800000
H      21.97730000     26.87910000     23.07020000
H      25.63300000     25.94500000     23.12330000
H      25.87450000     26.98350000     24.60290000
H      23.12400000     28.54900000     20.01100000
H      22.45120000     29.10210000     18.52200000
H      24.77440000     30.16420000     20.06570000
