13
pbedef2svp=-323.08801756562
C      25.69800000     32.87600000     15.66900000
O      26.15800000     33.73000000     14.89400000
C      26.77200000     33.43600000      9.19700000
C      27.15100000     33.36200000     10.65000000
N      28.26000000     33.94300000     11.09600000
O      26.35000000     32.77800000     11.39500000
H      25.30670000     31.97290000     15.17790000
H      25.63210000     32.93510000     16.76540000
H      27.66100000     33.67200000      8.59400000
H      28.87600000     34.37900000     10.44000000
H      26.36600000     32.46180000      8.88710000
H      25.99930000     34.19790000      9.01690000
H      28.49810000     33.95820000     12.06710000
