15
pbedef2svp=-345.08186296567 b3lypdef2svp=-345.29914920167 b3lypvdz=-345.57267054636
C      21.90700000     30.56300000      5.88100000
C      21.46600000     30.95300000      7.26100000
O      21.06600000     32.11200000      7.53300000
C      21.02300000     31.22300000      4.78400000
C      21.86100000     31.34200000      3.47400000
C      21.15600000     30.72600000      2.31100000
O      19.94200000     30.79300000      2.17000000
H      22.89500000     31.02900000      5.75500000
H      20.13500000     30.60100000      4.60000000
H      20.70800000     32.22400000      5.11400000
H      22.03900000     32.40600000      3.26000000
H      22.82400000     30.83100000      3.61900000
H      22.05370000     29.49340000      5.67010000
H      21.63880000     30.18940000      8.03370000
H      21.85690000     30.22180000      1.62940000
