6
pbedef2svp=-78.40824300752 b3lypdef2svp=-78.46940268193 b3lypvdz=-78.5290867266
C      21.44700000     27.86900000     16.02600000
C      20.63800000     26.73500000     16.05300000
H      20.75100000     26.00800000     16.84400000
H      22.20570000     28.00520000     16.81080000
H      21.35090000     28.61290000     15.22140000
H      19.88410000     26.58120000     15.26690000
