16
pbedef2svp=-362.32018957299 b3lypdef2svp=-362.55054010936 b3lypvdz=-362.83541123488
O      28.44900000     20.67400000      8.36000000
C      27.81900000     20.60900000      7.31600000
C      28.05400000     16.83500000      9.21000000
C      29.25800000     17.31800000      9.98400000
O      29.93000000     16.47700000     10.60600000
N      29.59900000     18.59900000      9.82800000
C      30.79600000     19.08300000     10.56600000
H      28.28810000     20.84830000      6.35030000
H      26.76820000     20.28460000      7.29260000
H      27.36300000     16.33700000      9.90600000
H      29.07000000     19.20900000      9.23800000
H      31.64900000     18.41000000     10.39300000
H      27.53620000     17.67480000      8.72360000
H      28.39370000     16.09990000      8.46550000
H      30.57340000     19.14070000     11.64170000
H      31.04840000     20.08980000     10.20180000
