22
pbedef2svp=-328.85400082396
C      41.71800000     30.02200000     10.64300000
C      41.39800000     28.78000000      9.81000000
C      36.35100000     33.61300000      7.83800000
C      37.22000000     32.82200000      8.82700000
N      36.81100000     29.17000000     12.19200000
C      37.44100000     28.88200000     11.05200000
O      38.02000000     29.77200000     10.38200000
H      42.79800000     30.00900000     10.85200000
H      41.23000000     27.91100000     10.46300000
H      40.50500000     28.95100000      9.19100000
H      41.18550000     29.91510000     11.59960000
H      41.48610000     30.97850000     10.15170000
H      42.28190000     28.61950000      9.17520000
H      35.32500000     33.67300000      8.23000000
H      36.76200000     34.62700000      7.73100000
H      36.84100000     31.79300000      8.91200000
H      37.19200000     33.30600000      9.81400000
H      36.33000000     33.12780000      6.85100000
H      38.25370000     32.80640000      8.45130000
H      36.39600000     28.44100000     12.73600000
H      36.75670000     30.12000000     12.49940000
H      37.46240000     27.81700000     10.77770000
