13
pbedef2svp=-323.1145312698 b3lypdef2svp=-323.31332724247 b3lypvdz=-323.56856198146
C      23.21200000     32.76200000     11.89100000
C      23.50900000     32.22400000     13.29000000
O      22.54400000     31.94200000     14.03400000
C      22.69900000     34.26700000     11.98500000
O      22.49500000     34.69000000     10.58900000
N      24.79000000     32.02100000     13.61800000
H      24.14700000     32.76300000     11.31200000
H      21.74500000     34.28200000     12.53300000
H      22.18600000     35.58800000     10.57200000
H      25.50600000     32.15100000     12.93200000
H      22.48450000     32.09600000     11.40400000
H      23.43720000     34.88740000     12.51420000
H      25.03460000     31.74030000     14.54610000
