12
pbedef2svp=-193.91537681978
C      36.97500000     26.82600000     15.10700000
O      37.57900000     27.92600000     15.15900000
C      39.09000000     26.62900000     19.32500000
C      40.08200000     26.90400000     18.19800000
H      35.97690000     26.74570000     15.56230000
H      37.41260000     25.92150000     14.65940000
H      39.53200000     25.97200000     20.08900000
H      38.16800000     26.17200000     18.93700000
H      40.61100000     25.98900000     17.89400000
H      39.58500000     27.34800000     17.32300000
H      38.89320000     27.63190000     19.73170000
H      40.76120000     27.62030000     18.68340000
