16
pbedef2svp=-362.30693049496 b3lypdef2svp=-362.53644400077 b3lypvdz=-362.82194083254
C      32.12800000     19.36400000     19.75000000
O      32.54600000     19.31700000     18.55800000
C      32.77600000     22.51900000     16.57700000
O      33.23300000     23.65900000     16.38400000
N      33.54800000     21.52600000     16.95000000
C      35.03100000     21.72200000     17.06900000
C      35.66700000     20.38300000     17.44700000
H      32.22500000     20.30980000     20.30330000
H      31.76700000     18.48210000     20.29940000
H      33.14600000     20.63400000     17.15600000
H      35.24600000     22.46200000     17.85400000
H      35.07400000     19.98200000     18.28200000
H      35.55700000     19.72700000     16.57100000
H      31.70620000     22.29040000     16.46200000
H      35.45680000     22.06320000     16.11390000
H      36.72140000     20.31800000     17.75370000
