18
pbedef2svp=-400.54124602063
C      31.74400000     38.87900000     16.29900000
O      31.73700000     40.25700000     15.82400000
O      33.17400000     43.06700000     16.26500000
C      32.97900000     43.91800000     17.44500000
C      30.45900000     40.66600000     12.13000000
O      30.25300000     39.99100000     13.13300000
N      30.16300000     40.33800000     10.88600000
H      32.36600000     38.76400000     17.19900000
H      32.61800000     40.51000000     15.57300000
H      30.68610000     38.71460000     16.55180000
H      32.11290000     38.22830000     15.49250000
H      34.10300000     42.97400000     16.09100000
H      33.35300000     44.93600000     17.26300000
H      31.88170000     43.93350000     17.52110000
H      33.46820000     43.48580000     18.33040000
H      30.35300000     40.96100000     10.12800000
H      30.98010000     41.62410000     12.27310000
H      29.74210000     39.44470000     10.72810000
