14
pbedef2svp=-303.26163712742 b3lypdef2svp=-303.45184563276 b3lypvdz=-303.6869836756
N      36.81100000     29.17000000     12.19200000
C      36.73100000     30.57000000     12.64500000
C      38.14800000     30.98100000     13.06900000
O      38.54400000     32.15000000     12.85600000
N      38.88300000     30.11000000     13.71300000
C      40.26900000     30.50800000     14.11500000
H      36.39600000     28.44100000     12.73600000
H      36.42300000     31.20600000     11.80200000
H      38.52700000     29.20100000     13.93100000
H      40.23000000     31.41000000     14.74400000
H      37.28330000     28.95410000     11.33740000
H      36.01010000     30.71520000     13.46310000
H      40.85770000     30.72260000     13.21090000
H      40.79390000     29.70730000     14.65650000
