13
pbedef2svp=-231.97899907152 b3lypdef2svp=-232.13528055508 b3lypvdz=-232.31501881349
C      25.03400000     30.17000000     20.40100000
C      24.10100000     30.14900000     19.19600000
O      24.19600000     30.94800000     18.28700000
C      24.63900000     31.42600000     21.28600000
C      25.64600000     31.67000000     22.42100000
H      24.85900000     29.26400000     21.00000000
H      24.67100000     32.30400000     20.62400000
H      26.63000000     31.89000000     21.98200000
H      25.30900000     32.53200000     23.01600000
H      26.09140000     30.21680000     20.10160000
H      23.32440000     29.37080000     19.23240000
H      23.60990000     31.34340000     21.66570000
H      25.73940000     30.79640000     23.08290000
