15
pbedef2svp=-378.39737042318
C      21.55000000     26.79600000     23.13300000
C      23.04600000     27.08700000     22.91300000
O      23.38300000     27.62700000     21.87000000
N      23.88000000     26.72700000     23.85100000
N      23.14100000     29.18700000     19.24100000
C      24.10100000     30.14900000     19.19600000
O      24.19600000     30.94800000     18.28700000
H      21.34400000     26.67500000     24.20700000
H      23.53200000     26.35300000     24.71100000
H      20.98910000     27.64600000     22.71730000
H      21.32540000     25.86490000     22.59200000
H      24.86540000     26.82430000     23.71150000
H      23.12400000     28.54900000     20.01100000
H      22.45120000     29.10210000     18.52200000
H      24.77440000     30.16420000     20.06570000
