10
pbedef2svp=-192.74520665953 b3lypdef2svp=-192.87217526491 b3lypvdz=-193.02340692788
C      21.18400000     24.26300000     11.69000000
C      21.11000000     24.11100000     10.17300000
O      21.84100000     23.19800000      9.68600000
C      22.65000000     24.51600000     12.17200000
H      20.53700000     25.08800000     12.02200000
H      23.21600000     23.58600000     12.01300000
H      20.84000000     23.30620000     12.10980000
H      20.41860000     24.75590000      9.61080000
H      22.65850000     24.73010000     13.25090000
H      23.16720000     25.32030000     11.62840000
