18
pbedef2svp=-326.48566677705 b3lypdef2svp=-326.70002828357 b3lypvdz=-326.95070808907
C      35.03100000     21.72200000     17.06900000
C      35.61500000     22.19000000     15.75900000
O      36.53200000     23.04600000     15.72400000
C      35.66700000     20.38300000     17.44700000
N      35.13900000     21.62400000     14.66200000
C      35.59000000     21.94500000     13.30200000
C      35.06400000     20.95700000     12.25500000
H      35.24600000     22.46200000     17.85400000
H      35.07400000     19.98200000     18.28200000
H      35.55700000     19.72700000     16.57100000
H      34.42500000     20.93200000     14.76600000
H      36.68700000     21.87000000     13.28900000
H      35.45300000     19.95000000     12.46600000
H      33.96400000     20.93800000     12.28200000
H      33.94390000     21.57830000     16.98180000
H      36.72140000     20.31800000     17.75370000
H      35.33660000     22.97950000     13.02700000
H      35.40590000     21.28740000     11.26310000
