16
pbedef2svp=-358.50091344018 b3lypdef2svp=-358.72314861311 b3lypvdz=-359.00313556316
N      27.77700000     28.58500000     26.73900000
C      27.55300000     27.35600000     24.69500000
C      28.26200000     27.57600000     26.02000000
O      29.18900000     26.84000000     26.33500000
C      27.13200000     32.42300000     26.57400000
N      27.63000000     33.65600000     26.46100000
N      27.87500000     31.31700000     26.44300000
H      28.17600000     28.80100000     27.63000000
H      27.01300000     29.12700000     26.38800000
H      28.02600000     26.52000000     24.15900000
H      27.62300000     28.26900000     24.08500000
H      26.49540000     27.11990000     24.88400000
H      26.91600000     34.35400000     26.51200000
H      27.44700000     30.43800000     26.65100000
H      26.04450000     32.32100000     26.70400000
H      28.83130000     31.31490000     26.15050000
