15
pbedef2svp=-378.37289488755 b3lypdef2svp=-378.60505144482 b3lypvdz=-378.90275245508
C      36.08300000     30.19400000     17.87500000
O      35.04800000     29.70200000     17.39300000
N      37.22800000     30.12600000     17.23300000
N      41.18900000     32.08500000     19.03100000
C      40.44900000     32.27800000     17.94500000
O      39.93600000     31.33600000     17.31500000
C      41.82200000     33.18800000     19.81300000
H      37.27600000     29.67300000     16.34300000
H      38.05100000     30.52700000     17.63500000
H      36.03110000     30.68130000     18.85980000
H      41.10900000     33.65500000     20.50800000
H      42.25100000     33.95800000     19.15500000
H      41.37360000     31.17950000     19.41310000
H      40.28750000     33.31930000     17.62930000
H      42.60380000     32.62870000     20.34770000
