16
pbedef2svp=-362.33178380586 b3lypdef2svp=-362.56134288746 b3lypvdz=-362.84634768626
O      29.93000000     16.47700000     10.60600000
N      29.59900000     18.59900000      9.82800000
C      29.25800000     17.31800000      9.98400000
O      28.44900000     20.67400000      8.36000000
C      29.21300000     19.69700000      5.50600000
C      28.46800000     20.94000000      5.98000000
C      27.81900000     20.60900000      7.31600000
H      29.07000000     19.20900000      9.23800000
H      30.40390000     18.92440000     10.32420000
H      28.38130000     16.96630000      9.42040000
H      30.07700000     19.54500000      6.16900000
H      28.53000000     18.83800000      5.59000000
H      27.69800000     21.22000000      5.24600000
H      29.58180000     19.73850000      4.47050000
H      29.15330000     21.77930000      6.16940000
H      26.76820000     20.28460000      7.29260000
