5
pbedef2svp=-40.4133425417 b3lypdef2svp=-40.45015679235 b3lypvdz=-40.47870800161
C      31.72000000     36.28900000      9.17600000
H      32.03600000     37.01200000      8.41000000
H      31.03820000     36.82410000      9.85340000
H      31.16040000     35.50050000      8.65150000
H      32.63200000     35.99860000      9.71820000
