7
pbedef2svp=-153.52331742525 b3lypdef2svp=-153.62299529705 b3lypvdz=-153.74481116796
C      34.14500000     35.47200000     23.48100000
C      34.23900000     35.35300000     24.97900000
O      33.70700000     36.19700000     25.72800000
H      34.41100000     34.50500000     23.02800000
H      33.11810000     35.73870000     23.19050000
H      34.82450000     36.23770000     23.07850000
H      34.83270000     34.52050000     25.38450000
