12
pbedef2svp=-339.15090011319 b3lypdef2svp=-339.35618143072 b3lypvdz=-339.62391022476
N      25.62100000     32.94500000     16.95000000
C      25.69800000     32.87600000     15.66900000
O      26.15800000     33.73000000     14.89400000
N      27.75100000     35.86700000     13.74000000
C      28.63800000     35.46100000     12.90000000
O      29.52200000     36.10300000     12.32000000
H      25.18900000     32.20800000     17.47000000
H      25.99730000     33.74220000     17.42210000
H      25.30670000     31.97290000     15.17790000
H      27.09800000     35.21600000     14.12700000
H      27.71110000     36.82960000     14.00790000
H      28.61460000     34.39800000     12.61790000
