16
pbedef2svp=-325.24674474018 b3lypdef2svp=-325.45340822598 b3lypvdz=-325.70606443386
N      26.55900000     20.22000000      7.28800000
C      25.82900000     19.82500000      8.49400000
C      26.54100000     18.73200000      9.25100000
O      26.33300000     18.53600000     10.45700000
C      24.46900000     19.33200000      7.95200000
C      24.29900000     20.13400000      6.70400000
C      25.71400000     20.10800000      6.07300000
H      25.66900000     20.69300000      9.15000000
H      24.49800000     18.25500000      7.73000000
H      23.65900000     19.53700000      8.66800000
H      23.56000000     19.67000000      6.03400000
H      23.98900000     21.16400000      6.93600000
H      25.90100000     19.16700000      5.53500000
H      25.87000000     20.95700000      5.39100000
H      27.51430000     20.51490000      7.30920000
H      27.22310000     18.08900000      8.67540000
