8
pbedef2svp=-79.63891496793 b3lypdef2svp=-79.70412500584 b3lypvdz=-79.76177716961
C      25.88400000     39.13900000     14.61500000
C      26.21900000     37.68400000     14.30700000
H      26.30200000     39.41600000     15.59400000
H      26.30900000     39.79000000     13.83700000
H      25.70800000     37.42000000     13.36900000
H      25.81700000     37.07300000     15.12800000
H      24.78990000     39.25080000     14.63420000
H      27.27980000     37.41810000     14.18880000
