11
pbedef2svp=-264.03435899133 b3lypdef2svp=-264.19572678914 b3lypvdz=-264.40220766085
N      39.65500000     34.33500000     11.28500000
N      40.11700000     31.75000000      9.98800000
C      39.80800000     32.99400000      9.23300000
C      39.83700000     34.27100000      9.99500000
O      40.16400000     35.32300000      9.34500000
H      39.48700000     33.47600000     11.76900000
H      39.41000000     31.24600000     10.48500000
H      40.65200000     33.09000000      8.53400000
H      39.66950000     35.17360000     11.82950000
H      41.06890000     31.44410000      9.97240000
H      38.94160000     32.85380000      8.56990000
