16
pbedef2svp=-213.31831047217 b3lypdef2svp=-213.47115689422 b3lypvdz=-213.62994603482
C      40.87300000     33.80200000     30.25300000
C      41.65100000     32.52900000     29.92300000
C      41.60800000     31.44400000     30.98900000
C      41.89600000     30.08000000     30.45600000
N      43.31100000     29.73500000     30.56300000
H      40.05800000     33.53600000     30.94300000
H      41.23700000     32.10900000     28.99400000
H      42.70300000     32.80600000     29.76300000
H      42.35500000     31.68200000     31.76000000
H      40.60500000     31.43800000     31.44000000
H      41.30800000     29.34500000     31.02600000
H      41.60100000     30.04400000     29.39700000
H      43.64900000     29.35700000     31.42500000
H      40.44030000     34.25790000     29.35020000
H      41.51610000     34.54240000     30.75120000
H      43.95570000     29.86200000     29.80920000
