11
pbedef2svp=-321.89876707967 b3lypdef2svp=-322.09192010319 b3lypvdz=-322.34826438768
C      25.69800000     32.87600000     15.66900000
O      26.15800000     33.73000000     14.89400000
N      25.62100000     32.94500000     16.95000000
C      26.17900000     34.12700000     17.65000000
C      27.47500000     33.65100000     18.30400000
O      27.50700000     32.58700000     18.95800000
H      25.18900000     32.20800000     17.47000000
H      26.36900000     34.95900000     16.95600000
H      25.30670000     31.97290000     15.17790000
H      25.49380000     34.43800000     18.45240000
H      28.34830000     34.31300000     18.20840000
