15
pbedef2svp=-287.20469021861
C      23.81200000     34.03100000      5.67700000
C      24.14700000     33.96600000      7.03800000
O      23.57900000     31.32100000      9.55400000
N      22.24100000     31.87300000     11.24100000
C      23.21200000     32.76200000     11.89100000
C      22.50400000     31.22800000     10.13600000
H      22.94800000     33.51100000      5.29000000
H      23.51900000     33.41800000      7.72500000
H      24.45850000     34.62870000      5.01770000
H      25.05090000     34.47540000      7.40320000
H      21.34100000     31.75600000     11.66200000
H      24.14700000     32.76300000     11.31200000
H      23.42580000     32.37470000     12.89810000
H      22.85770000     33.80140000     11.95590000
H      21.73270000     30.53490000      9.76920000
