13
pbedef2svp=-265.20268375903 b3lypdef2svp=-265.3724001571 b3lypvdz=-265.57789807994
C      29.27100000     31.31400000     26.01600000
N      27.87500000     31.31700000     26.44300000
N      27.77700000     28.58500000     26.73900000
C      28.26200000     27.57600000     26.02000000
O      29.18900000     26.84000000     26.33500000
H      29.85100000     30.66900000     26.69200000
H      29.66200000     32.34100000     26.06300000
H      27.44700000     30.43800000     26.65100000
H      29.37330000     30.93820000     24.98730000
H      27.32000000     32.14310000     26.54080000
H      28.17600000     28.80100000     27.63000000
H      27.01300000     29.12700000     26.38800000
H      27.74850000     27.41670000     25.06040000
