16
pbedef2svp=-362.32484939504 b3lypdef2svp=-362.55496695991 b3lypvdz=-362.83990700579
C      30.45900000     40.66600000     12.13000000
O      30.25300000     39.99100000     13.13300000
C      27.69100000     37.31500000     14.14300000
C      28.46900000     37.47500000     15.42000000
O      28.21300000     36.75300000     16.41100000
N      29.42600000     38.43000000     15.44600000
C      30.22500000     38.64300000     16.66200000
H      30.98010000     41.62410000     12.27310000
H      30.21240000     40.39270000     11.09340000
H      28.13900000     37.93800000     13.35500000
H      29.59100000     38.99300000     14.63600000
H      30.16200000     37.75100000     17.30200000
H      27.73490000     36.25610000     13.84830000
H      26.63020000     37.58090000     14.26120000
H      29.82170000     39.50280000     17.21700000
H      31.28290000     38.80740000     16.40920000
