17
pbedef2svp=-342.49055465997 b3lypdef2svp=-342.70800168668 b3lypvdz=-342.97234648858
C      39.07600000     34.93100000     29.03100000
O      38.29700000     34.94600000     29.99600000
C      39.08000000     36.94100000     27.40600000
C      39.50200000     37.34000000     26.00200000
N      40.29400000     34.41200000     29.04500000
N      37.19700000     35.39700000     27.51300000
C      38.66800000     35.50200000     27.68000000
H      38.22400000     37.57700000     27.67600000
H      39.92700000     37.16400000     28.07100000
H      40.56300000     37.08500000     25.86300000
H      40.83900000     34.43500000     28.20700000
H      36.61300000     36.17900000     27.72900000
H      39.13700000     34.87600000     26.90700000
H      38.91040000     36.83880000     25.22170000
H      39.38330000     38.42890000     25.90130000
H      40.68740000     33.99760000     29.86570000
H      36.78980000     34.54470000     27.18480000
