16
pbedef2svp=-362.31827540883
O      29.80900000     29.39500000      5.54500000
N      31.83400000     28.41200000      5.12500000
C      31.02200000     29.28800000      5.66500000
C      26.23500000     30.05800000      7.49700000
C      26.88200000     31.42800000      7.86200000
O      27.90600000     31.71100000      7.26400000
C      26.34400000     29.05000000      8.64500000
H      32.82200000     28.45600000      5.27400000
H      31.42440000     27.69750000      4.55790000
H      31.49180000     29.99600000      6.36360000
H      25.16500000     30.24200000      7.32000000
H      25.87900000     29.50700000      9.53100000
H      26.69280000     29.75830000      6.54270000
H      26.32170000     31.98910000      8.62440000
H      27.39250000     28.83400000      8.89820000
H      25.74960000     28.15870000      8.39550000
