16
pbedef2svp=-159.28003573933 b3lypdef2svp=-159.40955872398 b3lypvdz=-159.52484614432
C      32.34500000     34.18300000     18.35800000
C      32.55500000     32.78300000     18.87000000
C      35.92600000     35.97900000     21.73700000
C      35.00300000     35.08400000     20.92000000
H      32.46000000     34.90800000     19.17700000
H      33.56400000     32.69700000     19.30000000
H      31.80600000     32.56000000     19.64400000
H      32.44800000     32.06900000     18.04000000
H      31.33610000     34.26900000     17.92820000
H      33.07160000     34.40330000     17.56200000
H      36.73600000     35.36100000     22.15200000
H      35.56200000     34.65300000     20.07600000
H      34.62000000     34.27400000     21.55700000
H      34.16100000     35.67900000     20.53700000
H      35.34590000     36.39700000     22.57290000
H      36.36930000     36.78820000     21.13810000
