15
pbedef2svp=-378.37074575394
N      41.18900000     32.08500000     19.03100000
C      40.44900000     32.27800000     17.94500000
O      39.93600000     31.33600000     17.31500000
N      38.88300000     30.11000000     13.71300000
C      40.26900000     30.50800000     14.11500000
C      38.14800000     30.98100000     13.06900000
O      38.54400000     32.15000000     12.85600000
H      41.37360000     31.17950000     19.41310000
H      41.61300000     32.82380000     19.55480000
H      40.28750000     33.31930000     17.62930000
H      38.52700000     29.20100000     13.93100000
H      40.23000000     31.41000000     14.74400000
H      40.85770000     30.72260000     13.21090000
H      40.79390000     29.70730000     14.65650000
H      37.13260000     30.68650000     12.76520000
