13
pbedef2svp=-194.86028100491 b3lypdef2svp=-194.99824341559 b3lypvdz=-195.14649121537
C      26.13600000     35.34600000      6.64000000
C      25.81000000     35.39200000      5.26700000
C      24.62000000     34.77800000      4.85300000
C      25.69500000     34.49800000      8.94600000
C      25.28800000     34.60900000      7.49900000
H      27.00600000     35.85800000      7.02300000
H      26.45800000     35.88500000      4.55700000
H      24.31900000     34.89900000      3.82300000
H      24.80600000     34.23900000      9.53900000
H      26.08400000     35.47300000      9.27400000
H      23.97350000     34.18030000      5.51230000
H      26.46770000     33.73610000      9.12610000
H      24.38410000     34.09960000      7.13380000
