16
pbedef2svp=-362.33341521592
C      36.01200000     30.86000000     19.22100000
C      36.08300000     30.19400000     17.87500000
O      35.04800000     29.70200000     17.39300000
N      37.22800000     30.12600000     17.23300000
C      41.46100000     30.75100000     19.59400000
C      40.16800000     30.02600000     19.91800000
O      39.26400000     30.66200000     20.52100000
H      35.81700000     31.93400000     19.08500000
H      36.97000000     30.72500000     19.74400000
H      37.27600000     29.67300000     16.34300000
H      38.05100000     30.52700000     17.63500000
H      35.20410000     30.41700000     19.82190000
H      42.11200000     30.14800000     18.94400000
H      41.25790000     31.74700000     19.17360000
H      41.97880000     31.02680000     20.52450000
H      40.07650000     28.96140000     19.65690000
