15
pbedef2svp=-233.16129738207
C      29.54200000     39.02000000     10.65300000
C      28.11300000     39.04900000     10.01500000
C      27.69100000     37.31500000     14.14300000
C      28.46900000     37.47500000     15.42000000
O      28.21300000     36.75300000     16.41100000
H      29.47700000     38.47800000     11.60800000
H      28.15100000     39.62800000      9.08100000
H      30.00500000     40.00260000     10.82670000
H      30.22710000     38.47380000      9.98800000
H      27.48210000     39.55870000     10.75800000
H      27.73750000     38.03760000      9.80040000
H      28.13900000     37.93800000     13.35500000
H      27.73490000     36.25610000     13.84830000
H      26.63020000     37.58090000     14.26120000
H      29.24750000     38.25190000     15.44120000
