8
pbedef2svp=-79.64002886689 b3lypdef2svp=-79.7052767084 b3lypvdz=-79.76294200421
C      26.92600000     18.19100000     18.89200000
C      28.10800000     17.43900000     18.27600000
H      27.14900000     19.26800000     18.86300000
H      26.03200000     17.98500000     18.28500000
H      27.85100000     16.37300000     18.19200000
H      26.70840000     17.91140000     19.93340000
H      29.02550000     17.55440000     18.87180000
H      28.30110000     17.84390000     17.27160000
