8
pbedef2svp=-228.55883814912
C      28.63800000     35.46100000     12.90000000
O      29.52200000     36.10300000     12.32000000
C      30.95500000     35.21100000      8.45900000
O      30.02500000     34.61800000      9.04000000
H      28.61460000     34.39800000     12.61790000
H      27.88010000     35.80790000     13.61780000
H      31.51460000     35.99950000      8.98350000
H      31.19690000     35.02270000      7.40260000
