8
pbedef2svp=-79.63336182 b3lypdef2svp=-79.69829442438 b3lypvdz=-79.75590933534
C      39.80800000     32.99400000      9.23300000
C      38.61500000     32.80100000      8.32000000
H      40.65200000     33.09000000      8.53400000
H      38.67800000     33.59500000      7.56100000
H      38.75200000     31.82100000      7.83900000
H      40.03650000     32.07410000      9.79130000
H      39.82940000     33.93840000      9.79660000
H      37.58130000     32.81660000      8.69570000
