23
pbedef2svp=-312.79031062043
C      38.42100000     28.04800000     21.34100000
O      37.21300000     28.03600000     21.70400000
C      34.87600000     30.23700000     20.06600000
C      36.01200000     30.86000000     19.22100000
C      34.50900000     26.07700000     19.36000000
C      35.71500000     26.20300000     17.17200000
C      34.34300000     26.44500000     17.89800000
H      38.71040000     28.02750000     20.27990000
H      39.22070000     28.08320000     22.09540000
H      35.08000000     29.16300000     20.18800000
H      33.92600000     30.37100000     19.52700000
H      35.81700000     31.93400000     19.08500000
H      36.97000000     30.72500000     19.74400000
H      34.77810000     30.68950000     21.06380000
H      36.06390000     30.37270000     18.23620000
H      34.78800000     25.01600000     19.43700000
H      35.30300000     26.69700000     19.80200000
H      35.94800000     25.12800000     17.16500000
H      36.51400000     26.74800000     17.69600000
H      34.05700000     27.50400000     17.81100000
H      33.56400000     25.81600000     17.44200000
H      33.57070000     26.24550000     19.90870000
H      35.62940000     26.57130000     16.13900000
