11
pbedef2svp=-118.86094962085 b3lypdef2svp=-118.95406674222 b3lypvdz=-119.04091177475
C      41.65100000     32.52900000     29.92300000
C      41.60800000     31.44400000     30.98900000
C      41.89600000     30.08000000     30.45600000
H      41.23700000     32.10900000     28.99400000
H      42.70300000     32.80600000     29.76300000
H      42.35500000     31.68200000     31.76000000
H      40.60500000     31.43800000     31.44000000
H      41.30800000     29.34500000     31.02600000
H      41.60100000     30.04400000     29.39700000
H      41.09090000     33.44540000     30.16060000
H      42.96180000     29.82010000     30.53660000
