15
pbedef2svp=-229.31015864857 b3lypdef2svp=-229.46754807131 b3lypvdz=-229.64324083742
C      25.88400000     39.13900000     14.61500000
C      24.34800000     39.29600000     14.64200000
N      23.85300000     36.43200000     17.78100000
C      22.67400000     36.62700000     17.20000000
N      22.04500000     35.45500000     17.17300000
H      26.30200000     39.41600000     15.59400000
H      26.30900000     39.79000000     13.83700000
H      23.94200000     38.86500000     13.71500000
H      23.96100000     38.73700000     15.50600000
H      26.12570000     38.08920000     14.39280000
H      23.99620000     40.33530000     14.71990000
H      24.54200000     37.13900000     17.94000000
H      22.29600000     37.56400000     16.82000000
H      23.94480000     35.46900000     18.03440000
H      22.61570000     34.76560000     17.61920000
