23
pbedef2svp=-312.79069390756
C      27.33100000     29.31700000     20.36400000
O      27.10100000     28.34600000     21.09700000
C      24.57700000     25.19000000     19.07900000
C      25.93100000     25.84400000     18.95900000
C      25.34900000     26.87200000     23.64300000
C      26.07000000     27.02500000     24.96000000
C      27.55300000     27.35600000     24.69500000
H      28.36380000     29.50180000     20.03350000
H      26.59060000     30.07400000     20.06620000
H      23.81400000     25.84000000     18.62600000
H      24.59000000     24.22100000     18.55800000
H      24.33900000     25.03100000     20.14100000
H      25.90600000     26.81600000     19.47400000
H      26.73110000     25.23090000     19.39940000
H      26.12640000     26.01570000     17.89020000
H      25.55800000     27.73800000     22.99800000
H      25.61000000     27.84000000     25.53800000
H      25.99900000     26.08600000     25.52900000
H      28.02600000     26.52000000     24.15900000
H      27.62300000     28.26900000     24.08500000
H      24.26500000     26.76500000     23.79650000
H      25.63300000     25.94500000     23.12330000
H      28.06650000     27.51530000     25.65460000
