15
pbedef2svp=-287.23876405075 b3lypdef2svp=-287.4238085968 b3lypvdz=-287.64546635826
C      38.81700000     28.02000000     19.88900000
C      41.03500000     27.90900000     18.87900000
C      41.46100000     30.75100000     19.59400000
C      40.16800000     30.02600000     19.91800000
O      39.26400000     30.66200000     20.52100000
N      40.05900000     28.75800000     19.60700000
H      38.00200000     28.46900000     19.30300000
H      41.73000000     27.40700000     19.56800000
H      41.60700000     28.49000000     18.14100000
H      42.11200000     30.14800000     18.94400000
H      38.52760000     28.04050000     20.95010000
H      39.01380000     27.01710000     19.48230000
H      40.35580000     27.19270000     18.39360000
H      41.25790000     31.74700000     19.17360000
H      41.97880000     31.02680000     20.52450000
