15
pbedef2svp=-378.34988437707 b3lypdef2svp=-378.57987602441 b3lypvdz=-378.8774211343
N      22.24100000     31.87300000     11.24100000
C      23.21200000     32.76200000     11.89100000
C      23.50900000     32.22400000     13.29000000
O      22.54400000     31.94200000     14.03400000
C      22.69900000     34.26700000     11.98500000
O      22.49500000     34.69000000     10.58900000
N      24.79000000     32.02100000     13.61800000
H      21.34100000     31.75600000     11.66200000
H      24.14700000     32.76300000     11.31200000
H      21.74500000     34.28200000     12.53300000
H      22.18600000     35.58800000     10.57200000
H      25.50600000     32.15100000     12.93200000
H      22.44230000     31.37920000     10.39500000
H      23.43720000     34.88740000     12.51420000
H      25.03460000     31.74030000     14.54610000
