12
pbedef2svp=-248.03161919623 b3lypdef2svp=-248.19025451126 b3lypvdz=-248.38235454103
C      31.22000000     27.34100000      4.27500000
C      31.44000000     26.07900000      5.08000000
O      32.57600000     25.80200000      5.46100000
N      30.31000000     25.45800000      5.38400000
C      30.28800000     24.24500000      6.19300000
H      30.13900000     27.52500000      4.18300000
H      29.44600000     25.83300000      5.04800000
H      31.28700000     23.78400000      6.19600000
H      31.67060000     28.12700000      4.89880000
H      31.66200000     27.28350000      3.26940000
H      29.56540000     23.51590000      5.79770000
H      30.01650000     24.48820000      7.23090000
