23
pbedef2svp=-312.80253027115
C      33.30600000     34.38100000      9.84000000
C      34.53500000     34.02800000     10.72000000
C      36.35100000     33.61300000      7.83800000
C      36.32200000     32.94400000      6.47700000
C      31.40900000     32.68000000      6.44600000
O      32.61900000     32.81200000      6.12500000
C      30.50500000     33.88400000      6.51200000
H      32.43400000     33.80800000     10.18800000
H      33.52200000     34.12000000      8.79300000
H      34.74500000     32.95100000     10.64200000
H      35.41000000     34.59800000     10.37300000
H      34.32100000     34.28500000     11.76800000
H      33.08340000     35.45610000      9.90730000
H      35.32500000     33.67300000      8.23000000
H      36.76200000     34.62700000      7.73100000
H      37.34000000     32.64900000      6.18200000
H      35.67700000     32.05300000      6.51000000
H      36.97340000     33.04650000      8.54630000
H      35.91890000     33.67240000      5.75800000
H      29.59500000     33.63500000      7.07700000
H      30.97270000     31.68690000      6.62880000
H      31.04940000     34.69580000      7.01660000
H      30.21620000     34.23900000      5.51170000
