7
pbedef2svp=-95.63742377103 b3lypdef2svp=-95.70692018849 b3lypvdz=-95.77841859968
N      27.75100000     35.86700000     13.74000000
C      27.69100000     37.31500000     14.14300000
H      27.09800000     35.21600000     14.12700000
H      28.13900000     37.93800000     13.35500000
H      28.44000000     35.55160000     13.08750000
H      28.26010000     37.43200000     15.07710000
H      26.63020000     37.58090000     14.26120000
