11
pbedef2svp=-209.92210709407 b3lypdef2svp=-210.06241620705 b3lypvdz=-210.22670768347
N      28.26000000     33.94300000     11.09600000
C      28.60500000     33.96500000     12.50300000
C      30.95500000     35.21100000      8.45900000
O      30.02500000     34.61800000      9.04000000
H      28.87600000     34.37900000     10.44000000
H      27.82500000     33.46000000     13.09200000
H      27.42560000     33.50580000     10.76040000
H      28.62840000     35.02800000     12.78510000
H      29.57720000     33.50110000     12.72570000
H      31.51460000     35.99950000      8.98350000
H      31.19690000     35.02270000      7.40260000
