15
pbedef2svp=-287.19713141127 b3lypdef2svp=-287.38368740634 b3lypvdz=-287.60653272584
C      30.95500000     35.21100000      8.45900000
O      30.02500000     34.61800000      9.04000000
C      32.99500000     35.88300000      9.93400000
C      33.30600000     34.38100000      9.84000000
N      30.79500000     37.01500000     10.09500000
C      31.72000000     36.28900000      9.17600000
H      33.82000000     36.38500000      9.40700000
H      32.43400000     33.80800000     10.18800000
H      33.52200000     34.12000000      8.79300000
H      30.42700000     36.59700000     10.92600000
H      32.03600000     37.01200000      8.41000000
H      31.19690000     35.02270000      7.40260000
H      33.07410000     36.22850000     10.97530000
H      34.17690000     34.13080000     10.46360000
H      30.56920000     37.94970000      9.82040000
