11
pbedef2svp=-267.80451805661
C      27.15100000     33.36200000     10.65000000
O      26.35000000     32.77800000     11.39500000
O      23.57900000     31.32100000      9.55400000
C      21.41900000     30.25300000      9.62000000
C      22.50400000     31.22800000     10.13600000
H      26.87370000     33.41610000      9.58690000
H      28.06890000     33.84290000     11.01910000
H      20.41000000     30.65000000      9.80700000
H      21.61010000     30.08890000      8.54920000
H      21.57530000     29.29940000     10.14560000
H      22.28250000     31.77120000     11.06650000
