13
pbedef2svp=-377.19699125263 b3lypdef2svp=-377.42009863438 b3lypvdz=-377.71771452305
N      31.51000000     18.93600000     12.85200000
C      31.39800000     19.06400000     14.28600000
C      31.59300000     20.55300000     14.65500000
O      32.15900000     21.31100000     13.86100000
N      31.11300000     20.86300000     15.86000000
C      30.49100000     19.16200000     12.04000000
O      29.36700000     19.52300000     12.44100000
H      32.38900000     18.66700000     12.45900000
H      30.40500000     18.73500000     14.62700000
H      30.62600000     20.16900000     16.39000000
H      32.16550000     18.45290000     14.78340000
H      31.23290000     21.77950000     16.24150000
H      30.71360000     19.10430000     10.96430000
