13
pbedef2svp=-323.06898317353 b3lypdef2svp=-323.26966493923 b3lypvdz=-323.52539070872
C      24.51700000     21.47000000     20.03000000
O      25.24800000     21.30200000     21.19100000
C      23.20400000     21.90700000     20.19200000
N      27.94200000     22.44800000     21.64800000
C      27.99400000     23.78100000     21.64300000
O      28.90400000     24.44400000     22.09800000
H      26.12400000     21.00400000     20.97400000
H      22.79100000     22.04900000     21.18000000
H      24.94470000     21.32210000     19.02740000
H      22.59530000     22.10540000     19.29750000
H      27.17100000     21.98000000     21.21600000
H      28.66760000     21.91310000     22.08080000
H      27.14870000     24.31660000     21.18630000
