13
pbedef2svp=-323.09808890865 b3lypdef2svp=-323.29993461054 b3lypvdz=-323.5564019671
C      27.47500000     33.65100000     18.30400000
O      27.50700000     32.58700000     18.95800000
N      26.43600000     30.23200000     20.00400000
C      28.76200000     29.57300000     19.90600000
C      27.33100000     29.31700000     20.36400000
O      27.10100000     28.34600000     21.09700000
H      26.54180000     33.99370000     17.83310000
H      28.34830000     34.31300000     18.20840000
H      26.73800000     30.99700000     19.43500000
H      28.81600000     30.60900000     19.54100000
H      25.47470000     30.18950000     20.27620000
H      29.45240000     29.47150000     20.75640000
H      29.04300000     28.90990000     19.07460000
