19
pbedef2svp=-343.6761736778
C      30.92500000     34.30400000     17.75300000
N      28.52500000     34.44700000     18.18900000
C      29.80100000     34.14500000     18.82900000
C      30.22500000     38.64300000     16.66200000
N      29.42600000     38.43000000     15.44600000
C      28.46900000     37.47500000     15.42000000
O      28.21300000     36.75300000     16.41100000
H      30.79800000     33.52100000     16.99100000
H      30.82500000     35.29300000     17.28200000
H      28.44200000     35.28300000     17.64600000
H      29.80100000     33.10000000     19.17200000
H      31.93390000     34.21800000     18.18280000
H      27.73110000     33.84520000     18.27590000
H      29.98510000     34.80310000     19.69100000
H      30.16200000     37.75100000     17.30200000
H      29.59100000     38.99300000     14.63600000
H      29.82170000     39.50280000     17.21700000
H      31.28290000     38.80740000     16.40920000
H      27.89990000     37.35800000     14.48590000
