14
pbedef2svp=-249.15576354791 b3lypdef2svp=-249.32403247995 b3lypvdz=-249.51754516004
C      28.46900000     37.47500000     15.42000000
O      28.21300000     36.75300000     16.41100000
C      30.92500000     34.30400000     17.75300000
N      28.52500000     34.44700000     18.18900000
C      29.80100000     34.14500000     18.82900000
H      27.89990000     37.35800000     14.48590000
H      29.24750000     38.25190000     15.44120000
H      30.79800000     33.52100000     16.99100000
H      30.82500000     35.29300000     17.28200000
H      28.44200000     35.28300000     17.64600000
H      29.80100000     33.10000000     19.17200000
H      31.93390000     34.21800000     18.18280000
H      27.73110000     33.84520000     18.27590000
H      29.98510000     34.80310000     19.69100000
