16
pbedef2svp=-304.44205199569
N      38.88300000     30.11000000     13.71300000
C      40.26900000     30.50800000     14.11500000
C      40.99600000     29.39900000     14.86500000
N      37.63300000     26.54300000     11.86700000
C      38.72800000     26.59100000     12.61100000
O      39.70400000     27.34600000     12.27700000
H      38.52700000     29.20100000     13.93100000
H      40.23000000     31.41000000     14.74400000
H      40.46600000     29.18400000     15.80400000
H      41.02200000     28.49200000     14.24300000
H      38.32150000     30.77540000     13.22100000
H      40.85770000     30.72260000     13.21090000
H      42.02450000     29.71770000     15.09000000
H      36.89700000     25.91700000     12.12400000
H      37.52340000     27.11700000     11.05550000
H      38.77580000     25.98950000     13.53070000
