13
pbedef2svp=-269.00330537245 b3lypdef2svp=-269.18029278988 b3lypvdz=-269.39309359087
C      20.82200000     25.91400000      7.33200000
O      21.32300000     26.83000000      8.00800000
C      21.63700000     28.92300000     10.35300000
O      20.54400000     28.04700000     10.05900000
C      21.41900000     30.25300000      9.62000000
H      20.28940000     25.09390000      7.83580000
H      20.90630000     25.87100000      6.23610000
H      22.57800000     28.46500000     10.01500000
H      21.68500000     29.10200000     11.43700000
H      20.74700000     27.53500000      9.28500000
H      20.41000000     30.65000000      9.80700000
H      21.61010000     30.08890000      8.54920000
H      22.19030000     30.94610000      9.98680000
