23
pbedef2svp=-254.91684169578
C      38.69300000     34.10600000     17.59500000
C      38.14600000     33.93200000     19.02700000
C      38.81700000     28.02000000     19.88900000
N      40.05900000     28.75800000     19.60700000
C      34.87600000     30.23700000     20.06600000
C      36.01200000     30.86000000     19.22100000
H      38.14400000     33.41300000     16.94100000
H      37.08200000     34.21100000     19.05000000
H      38.25700000     32.88200000     19.33700000
H      38.70900000     34.57900000     19.71600000
H      39.75750000     33.83520000     17.53530000
H      38.53620000     35.12310000     17.20650000
H      38.00200000     28.46900000     19.30300000
H      38.52760000     28.04050000     20.95010000
H      39.01380000     27.01710000     19.48230000
H      40.14220000     29.72580000     19.84440000
H      40.71650000     28.18600000     19.11660000
H      35.08000000     29.16300000     20.18800000
H      33.92600000     30.37100000     19.52700000
H      35.81700000     31.93400000     19.08500000
H      36.97000000     30.72500000     19.74400000
H      34.77810000     30.68950000     21.06380000
H      36.06390000     30.37270000     18.23620000
