14
pbedef2svp=-398.13163289001
C      27.15100000     33.36200000     10.65000000
O      26.35000000     32.77800000     11.39500000
C      25.69800000     32.87600000     15.66900000
O      26.15800000     33.73000000     14.89400000
O      23.57900000     31.32100000      9.55400000
N      22.24100000     31.87300000     11.24100000
C      22.50400000     31.22800000     10.13600000
H      26.87370000     33.41610000      9.58690000
H      28.06890000     33.84290000     11.01910000
H      25.30670000     31.97290000     15.17790000
H      25.63210000     32.93510000     16.76540000
H      21.34100000     31.75600000     11.66200000
H      22.90230000     32.47850000     11.68370000
H      21.73270000     30.53490000      9.76920000
