15
pbedef2svp=-378.37585880281
C      28.37500000     17.99900000     16.88700000
O      29.32600000     18.78600000     16.69000000
C      27.57400000     18.19200000     14.56300000
N      27.51000000     17.68900000     15.95400000
N      31.51000000     18.93600000     12.85200000
C      30.49100000     19.16200000     12.04000000
O      29.36700000     19.52300000     12.44100000
H      28.56000000     18.63600000     14.36100000
H      26.75900000     17.07400000     16.19600000
H      28.18190000     17.59410000     17.89140000
H      26.79760000     18.96560000     14.46990000
H      27.37990000     17.38960000     13.83610000
H      32.38900000     18.66700000     12.45900000
H      31.43240000     19.02460000     13.84500000
H      30.71360000     19.10430000     10.96430000
