14
pbedef2svp=-158.09252649054 b3lypdef2svp=-158.21347849439 b3lypvdz=-158.32957463167
C      32.67200000     41.71700000     12.50500000
C      33.28000000     41.08600000     11.22700000
C      34.76200000     40.79900000     11.47000000
C      31.19100000     42.01200000     12.33100000
H      33.20000000     42.65600000     12.72600000
H      32.80100000     41.01800000     13.34500000
H      32.75600000     40.14700000     10.99400000
H      33.17300000     41.78500000     10.38400000
H      35.14400000     41.54500000     12.18200000
H      34.85000000     39.79400000     11.91000000
H      31.04300000     42.64100000     11.44100000
H      35.38800000     40.83430000     10.56620000
H      30.71680000     42.47330000     13.20980000
H      30.66990000     41.05390000     12.18790000
