12
pbedef2svp=-193.95167823781 b3lypdef2svp=-194.08515751447 b3lypvdz=-194.23483738453
C      27.57400000     18.19200000     14.56300000
C      27.29900000     17.05500000     13.53300000
O      25.92500000     16.61100000     13.91300000
C      28.23600000     15.86400000     13.55800000
H      28.56000000     18.63600000     14.36100000
H      27.28300000     17.48700000     12.52200000
H      25.65000000     15.90600000     13.33900000
H      27.93200000     15.14100000     12.78700000
H      29.26400000     16.20200000     13.35900000
H      28.19300000     15.38400000     14.54700000
H      27.52640000     17.81830000     15.59650000
H      26.79760000     18.96560000     14.46990000
