21
pbedef2svp=-344.8490069369
C      30.52000000     22.30000000     17.76400000
C      29.00600000     22.04300000     17.44200000
N      31.23300000     21.09000000     21.45900000
C      32.26200000     20.67000000     20.51400000
C      28.37500000     17.99900000     16.88700000
O      29.32600000     18.78600000     16.69000000
N      27.51000000     17.68900000     15.95400000
H      30.88200000     21.52100000     18.45100000
H      28.90200000     21.00100000     17.10700000
H      28.43100000     22.19000000     18.36800000
H      31.06370000     22.22990000     16.81040000
H      30.74120000     23.29180000     18.18510000
H      28.57490000     22.69440000     16.66750000
H      31.54300000     21.39500000     22.36000000
H      32.31500000     21.45700000     19.74700000
H      30.24720000     21.10220000     21.29180000
H      32.16500000     19.72420000     19.96070000
H      33.23390000     20.70250000     21.02820000
H      26.75900000     17.07400000     16.19600000
H      28.18190000     17.59410000     17.89140000
H      27.55320000     18.02870000     15.01450000
