16
pbedef2svp=-362.34207689093
C      26.17900000     34.12700000     17.65000000
C      27.47500000     33.65100000     18.30400000
O      27.50700000     32.58700000     18.95800000
N      26.43600000     30.23200000     20.00400000
C      28.76200000     29.57300000     19.90600000
C      27.33100000     29.31700000     20.36400000
O      27.10100000     28.34600000     21.09700000
H      26.36900000     34.95900000     16.95600000
H      25.76500000     33.25010000     17.13070000
H      25.49380000     34.43800000     18.45240000
H      28.34830000     34.31300000     18.20840000
H      26.73800000     30.99700000     19.43500000
H      28.81600000     30.60900000     19.54100000
H      25.47470000     30.18950000     20.27620000
H      29.45240000     29.47150000     20.75640000
H      29.04300000     28.90990000     19.07460000
