9
pbedef2svp=-208.70745631925
C      30.32000000     16.69800000     19.05100000
O      30.19800000     15.65700000     18.36600000
C      27.60300000     14.42300000     20.65500000
N      27.47900000     13.73300000     19.53700000
H      31.24010000     16.89260000     19.62160000
H      29.50830000     17.44010000     19.07170000
H      28.09800000     12.94800000     19.51000000
H      27.07040000     15.35420000     20.89840000
H      28.34420000     14.05400000     21.37920000
