9
pbedef2svp=-204.96289844743 b3lypdef2svp=-205.08930489068 b3lypvdz=-205.2474303022
N      35.04000000     30.25200000     26.73000000
C      34.33800000     29.10300000     26.65000000
N      34.11000000     28.43700000     27.76800000
N      34.01400000     28.65700000     25.45700000
H      35.16400000     30.85000000     25.93800000
H      33.66800000     27.54100000     27.73500000
H      34.38000000     28.82900000     28.64700000
H      33.57700000     27.75900000     25.49900000
H      35.42930000     30.47320000     27.62420000
