10
pbedef2svp=-134.86064143443 b3lypdef2svp=-134.95725025575 b3lypvdz=-135.05823804062
N      41.18900000     32.08500000     19.03100000
C      41.46100000     30.75100000     19.59400000
C      42.19500000     31.14200000     20.91300000
H      42.11200000     30.14800000     18.94400000
H      41.47600000     31.30900000     21.72900000
H      42.91200000     30.36200000     21.21000000
H      40.63190000     32.23030000     18.21340000
H      41.61300000     32.82380000     19.55480000
H      40.52370000     30.22540000     19.82890000
H      42.71490000     32.07470000     20.64900000
