12
pbedef2svp=-247.98566724513 b3lypdef2svp=-248.14505117176 b3lypvdz=-248.33883275149
N      30.13200000     40.06900000     18.64200000
C      29.60700000     41.18000000     19.46700000
C      30.07500000     42.53800000     18.98400000
O      29.58600000     43.57000000     19.48300000
C      29.91900000     40.89000000     20.93800000
H      30.85500000     39.48300000     19.00900000
H      28.51100000     41.16800000     19.37000000
H      30.99700000     40.68600000     21.01500000
H      29.67500000     41.79500000     21.51400000
H      29.77630000     39.89420000     17.72390000
H      30.82350000     42.56500000     18.17830000
H      29.38740000     40.04640000     21.40240000
