18
pbedef2svp=-326.38514902419 b3lypdef2svp=-326.59420889153 b3lypvdz=-326.84750513377
N      34.93000000     34.38400000     25.45100000
C      35.16100000     34.17400000     26.89600000
C      36.67100000     34.29600000     27.08900000
O      37.30500000     33.23300000     26.79500000
C      34.71700000     32.76000000     27.28600000
C      35.75200000     32.05400000     28.16000000
C      35.61200000     30.57700000     28.04400000
H      35.33500000     33.73400000     24.80800000
H      34.63100000     34.92600000     27.50000000
H      33.77000000     32.82600000     27.84100000
H      34.56500000     32.17100000     26.37000000
H      36.76100000     32.34900000     27.83600000
H      35.60300000     32.35000000     29.20900000
H      36.60000000     30.10400000     28.14300000
H      34.94700000     30.20600000     28.83800000
H      34.39030000     35.14080000     25.08230000
H      37.11890000     35.23360000     27.45010000
H      35.18380000     30.33370000     27.06040000
