23
pbedef2svp=-254.91940632437
C      26.77200000     33.43600000      9.19700000
C      25.69500000     34.49800000      8.94600000
C      28.11300000     39.04900000     10.01500000
C      27.58800000     37.63500000      9.71500000
N      31.24400000     34.98600000      7.19700000
C      30.50500000     33.88400000      6.51200000
H      27.66100000     33.67200000      8.59400000
H      24.80600000     34.23900000      9.53900000
H      26.08400000     35.47300000      9.27400000
H      26.36600000     32.46180000      8.88710000
H      27.04930000     33.38190000     10.26010000
H      25.39800000     34.57900000      7.89000000
H      28.15100000     39.62800000      9.08100000
H      26.58500000     37.70300000      9.26900000
H      28.26800000     37.13300000      9.01200000
H      27.53600000     37.05800000     10.65000000
H      29.11730000     39.02860000     10.46340000
H      27.48210000     39.55870000     10.75800000
H      31.93100000     35.53000000      6.71500000
H      29.59500000     33.63500000      7.07700000
H      31.02410000     35.15720000      8.15740000
H      31.16480000     33.00520000      6.46380000
H      30.21620000     34.23900000      5.51170000
