18
pbedef2svp=-326.48977012356 b3lypdef2svp=-326.70377815328 b3lypvdz=-326.95436840809
C      26.92600000     18.19100000     18.89200000
C      26.62100000     17.79900000     20.35200000
C      31.56800000     16.96200000     19.82500000
C      30.32000000     16.69800000     19.05100000
O      30.19800000     15.65700000     18.36600000
N      29.34000000     17.59400000     19.07600000
C      28.10800000     17.43900000     18.27600000
H      27.14900000     19.26800000     18.86300000
H      26.03200000     17.98500000     18.28500000
H      27.54500000     17.79200000     20.94900000
H      25.90200000     18.50300000     20.79700000
H      32.42200000     16.80400000     19.15000000
H      31.61200000     16.23500000     20.64900000
H      29.44000000     18.40200000     19.65700000
H      27.85100000     16.37300000     18.19200000
H      26.18900000     16.78870000     20.30110000
H      31.66420000     17.96840000     20.25840000
H      28.30110000     17.84390000     17.27160000
