15
pbedef2svp=-378.39257531346 b3lypdef2svp=-378.62447241326 b3lypvdz=-378.92236948091
N      22.09900000     29.16300000      5.60500000
C      21.65600000     26.84700000      5.24000000
C      21.12700000     28.24000000      5.57400000
O      19.95800000     28.46500000      5.84200000
N      26.84900000     29.65600000      6.21700000
C      26.10000000     29.25300000      5.20200000
O      24.86500000     29.02400000      5.33000000
H      23.03200000     28.85400000      5.42200000
H      22.70900000     26.81500000      5.55600000
H      21.96560000     30.13540000      5.79670000
H      21.09940000     26.09800000      5.82240000
H      21.63790000     26.69890000      4.15020000
H      27.84300000     29.68800000      6.11500000
H      26.43290000     29.92850000      7.08450000
H      26.64200000     29.08530000      4.25960000
