21
pbedef2svp=-344.8563959983
N      34.73400000     25.82200000     14.94900000
C      35.59600000     26.71500000     15.73600000
C      35.70800000     30.77600000     13.80600000
C      35.87400000     32.13800000     14.51200000
C      36.08300000     30.19400000     17.87500000
O      35.04800000     29.70200000     17.39300000
N      37.22800000     30.12600000     17.23300000
H      34.36300000     24.99500000     15.37200000
H      35.14500000     27.71800000     15.76300000
H      34.51330000     26.03060000     13.99620000
H      36.59410000     26.79530000     15.28070000
H      35.68160000     26.34670000     16.76900000
H      35.89000000     29.98800000     14.55100000
H      35.13000000     32.22700000     15.31700000
H      36.88600000     32.20900000     14.93800000
H      35.72500000     32.94900000     13.78400000
H      36.42890000     30.63080000     12.98790000
H      34.66770000     30.67340000     13.46370000
H      37.27600000     29.67300000     16.34300000
H      38.05100000     30.52700000     17.63500000
H      36.03110000     30.68130000     18.85980000
