15
pbedef2svp=-233.1493847313
C      28.37500000     17.99900000     16.88700000
O      29.32600000     18.78600000     16.69000000
C      32.35200000     16.70000000     14.63000000
C      31.39800000     19.06400000     14.28600000
C      32.49200000     18.19300000     14.99500000
H      28.18190000     17.59410000     17.89140000
H      27.64840000     17.73860000     16.10330000
H      33.13400000     16.12100000     15.14400000
H      31.36200000     16.33700000     14.94300000
H      32.46000000     16.57700000     13.54200000
H      30.40500000     18.73500000     14.62700000
H      32.40300000     18.31600000     16.08500000
H      31.48330000     18.96650000     13.19370000
H      31.53670000     20.12320000     14.54850000
H      33.44980000     18.59970000     14.63820000
