15
pbedef2svp=-378.37200590856
C      21.46000000     18.73700000     16.16300000
O      20.49700000     18.50600000     16.90000000
N      21.84600000     19.95400000     15.90500000
N      26.58500000     20.06300000     13.37800000
C      25.59400000     21.10900000     13.07200000
C      26.48200000     19.28000000     14.43200000
O      25.60900000     19.38800000     15.28700000
H      22.72300000     20.07900000     15.44100000
H      22.14790000     17.94780000     15.82550000
H      21.32120000     20.77160000     16.14170000
H      27.36400000     19.94300000     12.76300000
H      25.51600000     21.80500000     13.92000000
H      24.61890000     20.62400000     12.91710000
H      25.94320000     21.66420000     12.18890000
H      27.25840000     18.50640000     14.52510000
