13
pbedef2svp=-269.04468224408
C      41.60800000     31.44400000     30.98900000
C      41.89600000     30.08000000     30.45600000
C      40.55900000     28.58500000     25.67500000
O      40.71600000     29.80900000     25.45600000
O      40.54900000     28.09000000     26.84000000
H      42.35500000     31.68200000     31.76000000
H      40.60500000     31.43800000     31.44000000
H      41.30800000     29.34500000     31.02600000
H      41.60100000     30.04400000     29.39700000
H      41.63910000     32.22830000     30.21840000
H      42.96180000     29.82010000     30.53660000
H      40.67600000     28.78100000     27.47900000
H      40.40020000     27.93760000     24.80000000
