15
pbedef2svp=-175.28000925389
N      31.11300000     20.86300000     15.86000000
C      31.28800000     22.20100000     16.41700000
C      33.53300000     25.09700000     12.97800000
C      32.06000000     25.25700000     13.36400000
H      30.62600000     20.16900000     16.39000000
H      30.85300000     22.93800000     15.72600000
H      31.47290000     20.63050000     14.95640000
H      32.35780000     22.42960000     16.53200000
H      30.74430000     22.27110000     17.37060000
H      33.61300000     25.28200000     11.89700000
H      31.94400000     24.89900000     14.39800000
H      33.89050000     24.07720000     13.18320000
H      34.18780000     25.81960000     13.48710000
H      31.79120000     26.32350000     13.34830000
H      31.40290000     24.65200000     12.72210000
