12
pbedef2svp=-193.92288697815
C      40.26900000     30.50800000     14.11500000
C      40.99600000     29.39900000     14.86500000
C      40.44900000     32.27800000     17.94500000
O      39.93600000     31.33600000     17.31500000
H      40.23000000     31.41000000     14.74400000
H      40.46600000     29.18400000     15.80400000
H      41.02200000     28.49200000     14.24300000
H      39.25060000     30.21550000     13.81960000
H      40.85770000     30.72260000     13.21090000
H      42.02450000     29.71770000     15.09000000
H      40.28750000     33.31930000     17.62930000
H      41.06180000     32.11820000     18.84440000
