12
pbedef2svp=-247.98403049449 b3lypdef2svp=-248.14265348227 b3lypvdz=-248.33678532139
N      33.54800000     21.52600000     16.95000000
C      35.03100000     21.72200000     17.06900000
C      35.61500000     22.19000000     15.75900000
O      36.53200000     23.04600000     15.72400000
C      35.66700000     20.38300000     17.44700000
H      33.14600000     20.63400000     17.15600000
H      35.24600000     22.46200000     17.85400000
H      35.07400000     19.98200000     18.28200000
H      35.55700000     19.72700000     16.57100000
H      32.95960000     22.28290000     16.66570000
H      35.21920000     21.71940000     14.84690000
H      36.72140000     20.31800000     17.75370000
