8
pbedef2svp=-79.63845888067 b3lypdef2svp=-79.70363211856 b3lypvdz=-79.76137694689
C      31.28800000     22.20100000     16.41700000
C      30.52000000     22.30000000     17.76400000
H      30.85300000     22.93800000     15.72600000
H      30.88200000     21.52100000     18.45100000
H      31.15610000     21.19280000     15.99730000
H      32.35780000     22.42960000     16.53200000
H      29.45860000     22.11980000     17.53830000
H      30.74120000     23.29180000     18.18510000
