15
pbedef2svp=-233.16249415154
C      32.35200000     16.70000000     14.63000000
C      32.49200000     18.19300000     14.99500000
C      32.26200000     20.67000000     20.51400000
C      32.12800000     19.36400000     19.75000000
O      32.54600000     19.31700000     18.55800000
H      33.13400000     16.12100000     15.14400000
H      31.36200000     16.33700000     14.94300000
H      32.46000000     16.57700000     13.54200000
H      32.40300000     18.31600000     16.08500000
H      31.72450000     18.80410000     14.49760000
H      33.44980000     18.59970000     14.63820000
H      32.31500000     21.45700000     19.74700000
H      31.48610000     20.98670000     21.22650000
H      33.23390000     20.70250000     21.02820000
H      31.76700000     18.48210000     20.29940000
