15
pbedef2svp=-378.32777820941
C      27.47500000     33.65100000     18.30400000
O      27.50700000     32.58700000     18.95800000
N      29.69400000     29.43600000     21.05400000
C      28.76200000     29.57300000     19.90600000
C      27.33100000     29.31700000     20.36400000
O      27.10100000     28.34600000     21.09700000
N      26.43600000     30.23200000     20.00400000
H      26.54180000     33.99370000     17.83310000
H      28.34830000     34.31300000     18.20840000
H      29.93800000     28.52400000     21.38400000
H      28.81600000     30.60900000     19.54100000
H      26.73800000     30.99700000     19.43500000
H      30.08150000     30.24190000     21.50160000
H      29.04300000     28.90990000     19.07460000
H      25.47470000     30.18950000     20.27620000
