14
pbedef2svp=-249.15478521962 b3lypdef2svp=-249.32355262124 b3lypvdz=-249.51683914992
C      26.91300000     26.63900000      3.53100000
O      27.88600000     26.46300000      4.26300000
C      29.90300000     24.59000000      7.66500000
N      30.31000000     25.45800000      5.38400000
C      30.28800000     24.24500000      6.19300000
H      26.45330000     25.76780000      3.04140000
H      26.42360000     27.59660000      3.29980000
H      29.89100000     23.63600000      8.21200000
H      29.44600000     25.83300000      5.04800000
H      31.28700000     23.78400000      6.19600000
H      30.60400000     25.25220000      8.19420000
H      28.87570000     24.98230000      7.69380000
H      31.16300000     25.92680000      5.15450000
H      29.56540000     23.51590000      5.79770000
