7
pbedef2svp=-153.52352661257 b3lypdef2svp=-153.62329087259 b3lypvdz=-153.74507076469
C      31.42200000     43.94000000     17.55300000
C      30.75500000     44.35100000     16.27700000
O      31.20700000     45.26800000     15.56600000
H      31.15100000     44.66200000     18.33700000
H      31.10650000     42.93780000     17.87880000
H      32.51930000     43.92450000     17.47690000
H      29.87810000     43.77600000     15.94460000
