14
pbedef2svp=-249.21209599449
C      26.92600000     18.19100000     18.89200000
C      28.10800000     17.43900000     18.27600000
N      31.23300000     21.09000000     21.45900000
C      29.94200000     21.10600000     21.24000000
O      29.47000000     20.67700000     20.19000000
H      27.14900000     19.26800000     18.86300000
H      26.03200000     17.98500000     18.28500000
H      27.85100000     16.37300000     18.19200000
H      26.70840000     17.91140000     19.93340000
H      29.02550000     17.55440000     18.87180000
H      28.30110000     17.84390000     17.27160000
H      31.54300000     21.39500000     22.36000000
H      31.93830000     20.80210000     20.81120000
H      29.26390000     21.50910000     22.00660000
