7
pbedef2svp=-95.63788662636 b3lypdef2svp=-95.70736989815 b3lypvdz=-95.77883633245
N      26.33500000     27.77000000      3.25800000
C      26.85000000     29.02100000      3.89800000
H      25.55800000     27.80400000      2.63000000
H      27.91400000     28.87800000      4.13600000
H      26.77990000     26.89940000      3.46810000
H      26.30800000     29.18870000      4.84040000
H      26.76460000     29.84380000      3.17300000
