15
pbedef2svp=-378.33230041772 b3lypdef2svp=-378.56510546434 b3lypvdz=-378.86409434107
N      28.52500000     34.44700000     18.18900000
C      27.47500000     33.65100000     18.30400000
O      27.50700000     32.58700000     18.95800000
N      27.75100000     35.86700000     13.74000000
C      27.69100000     37.31500000     14.14300000
C      28.46900000     37.47500000     15.42000000
O      28.21300000     36.75300000     16.41100000
H      28.44200000     35.28300000     17.64600000
H      29.39950000     34.24000000     18.62760000
H      26.54180000     33.99370000     17.83310000
H      27.09800000     35.21600000     14.12700000
H      28.13900000     37.93800000     13.35500000
H      28.44000000     35.55160000     13.08750000
H      26.63020000     37.58090000     14.26120000
H      29.24750000     38.25190000     15.44120000
