10
pbedef2svp=-283.86214458857 b3lypdef2svp=-284.0369631452 b3lypvdz=-284.2637488806
C      30.49100000     19.16200000     12.04000000
O      29.36700000     19.52300000     12.44100000
N      26.58500000     20.06300000     13.37800000
C      26.48200000     19.28000000     14.43200000
O      25.60900000     19.38800000     15.28700000
H      30.71360000     19.10430000     10.96430000
H      31.33860000     18.97400000     12.71540000
H      27.36400000     19.94300000     12.76300000
H      25.91220000     20.77310000     13.17030000
H      27.25840000     18.50640000     14.52510000
