19
pbedef2svp=-310.34824831914
C      30.09100000     34.39300000      5.07800000
O      31.44000000     34.51300000      4.48700000
C      29.42000000     35.75600000      5.11900000
C      26.13600000     35.34600000      6.64000000
C      23.81200000     34.03100000      5.67700000
C      25.81000000     35.39200000      5.26700000
C      24.62000000     34.77800000      4.85300000
H      29.47000000     33.64700000      4.56000000
H      32.04400000     33.95000000      4.95800000
H      29.15200000     36.06400000      4.09800000
H      28.51000000     35.69800000      5.73500000
H      30.11200000     36.49200000      5.55400000
H      30.37980000     34.03800000      6.07830000
H      27.00600000     35.85800000      7.02300000
H      22.94800000     33.51100000      5.29000000
H      26.45800000     35.88500000      4.55700000
H      24.31900000     34.89900000      3.82300000
H      25.47640000     34.77280000      7.30810000
H      24.07460000     33.98000000      6.74400000
