16
pbedef2svp=-213.32208665488 b3lypdef2svp=-213.47521625577 b3lypvdz=-213.63399130519
N      32.47800000     30.91700000     22.26900000
C      31.20000000     30.32900000     22.78000000
C      30.84700000     30.93100000     24.11800000
C      29.41200000     30.79600000     24.59800000
C      29.27100000     31.31400000     26.01600000
H      32.49800000     31.87600000     21.98800000
H      31.35500000     29.25000000     22.92500000
H      31.49100000     30.45600000     24.87200000
H      31.07600000     32.00600000     24.06500000
H      28.75300000     31.37500000     23.93500000
H      29.12000000     29.73600000     24.57000000
H      29.85100000     30.66900000     26.69200000
H      29.66200000     32.34100000     26.06300000
H      33.31260000     30.37010000     22.20290000
H      30.48030000     30.45990000     21.95850000
H      28.21910000     31.31630000     26.33770000
