17
pbedef2svp=-197.27004320948
C      22.43700000     22.15700000     19.06500000
C      23.20400000     21.90700000     20.19200000
C      19.76200000     25.07700000     22.45500000
C      19.63400000     23.88500000     21.53100000
C      18.79100000     24.22100000     20.31300000
H      21.42600000     22.51800000     19.18200000
H      22.79100000     22.04900000     21.18000000
H      22.83830000     21.99430000     18.05380000
H      24.24060000     21.56200000     20.06410000
H      19.49400000     24.79200000     23.48300000
H      19.10600000     25.89300000     22.11700000
H      20.63700000     23.57900000     21.19900000
H      19.16000000     23.05700000     22.07800000
H      19.25900000     25.03600000     19.74100000
H      18.68500000     23.33500000     19.66900000
H      20.81510000     25.39150000     22.40950000
H      17.80630000     24.53730000     20.68760000
