13
pbedef2svp=-323.09684888949
C      20.82200000     25.91400000      7.33200000
O      21.32300000     26.83000000      8.00800000
N      21.67400000     30.03400000      8.19100000
C      21.90700000     30.56300000      5.88100000
C      21.46600000     30.95300000      7.26100000
O      21.06600000     32.11200000      7.53300000
H      20.28940000     25.09390000      7.83580000
H      20.90630000     25.87100000      6.23610000
H      22.02400000     29.14200000      7.90400000
H      22.89500000     31.02900000      5.75500000
H      21.50030000     30.18320000      9.16440000
H      22.05370000     29.49340000      5.67010000
H      21.28200000     31.02960000      5.10540000
