15
pbedef2svp=-378.37535191546
N      24.79000000     32.02100000     13.61800000
C      25.14900000     31.60900000     14.98000000
C      23.50900000     32.22400000     13.29000000
O      22.54400000     31.94200000     14.03400000
N      23.14100000     29.18700000     19.24100000
C      24.10100000     30.14900000     19.19600000
O      24.19600000     30.94800000     18.28700000
H      25.50600000     32.15100000     12.93200000
H      24.28500000     31.20800000     15.53000000
H      25.54030000     32.51210000     15.47110000
H      25.97710000     30.88500000     14.97070000
H      23.29520000     32.61130000     12.28290000
H      23.12400000     28.54900000     20.01100000
H      22.45120000     29.10210000     18.52200000
H      24.77440000     30.16420000     20.06570000
