18
pbedef2svp=-326.48547466115 b3lypdef2svp=-326.6991958041 b3lypvdz=-326.94961450055
C      23.21200000     32.76200000     11.89100000
C      23.50900000     32.22400000     13.29000000
O      22.54400000     31.94200000     14.03400000
N      24.79000000     32.02100000     13.61800000
C      25.14900000     31.60900000     14.98000000
C      26.31000000     30.59400000     14.96700000
C      26.29000000     29.48000000     13.96000000
H      24.14700000     32.76300000     11.31200000
H      25.50600000     32.15100000     12.93200000
H      24.28500000     31.20800000     15.53000000
H      27.23500000     31.16400000     14.79900000
H      26.34200000     30.12800000     15.96300000
H      26.46700000     29.91100000     12.96300000
H      22.48450000     32.09600000     11.40400000
H      22.85770000     33.80140000     11.95590000
H      25.54030000     32.51210000     15.47110000
H      27.07870000     28.73780000     14.15240000
H      25.30590000     28.98870000     13.95420000
