11
pbedef2svp=-264.04370667844 b3lypdef2svp=-264.2067089552 b3lypvdz=-264.41226719973
N      26.43600000     30.23200000     20.00400000
C      25.03400000     30.17000000     20.40100000
C      24.10100000     30.14900000     19.19600000
O      24.19600000     30.94800000     18.28700000
N      23.14100000     29.18700000     19.24100000
H      26.73800000     30.99700000     19.43500000
H      24.85900000     29.26400000     21.00000000
H      23.12400000     28.54900000     20.01100000
H      27.10910000     29.54380000     20.27480000
H      24.76010000     31.04090000     21.01460000
H      22.45120000     29.10210000     18.52200000
