14
pbedef2svp=-303.2677495634 b3lypdef2svp=-303.45769188565 b3lypvdz=-303.69291664526
N      28.26000000     33.94300000     11.09600000
N      26.21400000     32.09700000      8.77100000
C      26.77200000     33.43600000      9.19700000
C      27.15100000     33.36200000     10.65000000
O      26.35000000     32.77800000     11.39500000
C      25.69500000     34.49800000      8.94600000
H      28.87600000     34.37900000     10.44000000
H      25.36900000     31.73600000      9.16600000
H      27.66100000     33.67200000      8.59400000
H      24.80600000     34.23900000      9.53900000
H      26.08400000     35.47300000      9.27400000
H      28.49810000     33.95820000     12.06710000
H      26.72330000     31.58690000      8.07790000
H      25.39800000     34.57900000      7.89000000
