14
pbedef2svp=-303.26980055034 b3lypdef2svp=-303.46037605866 b3lypvdz=-303.69490902719
N      38.41900000     30.37300000     23.34100000
C      37.73800000     31.63700000     23.71200000
C      36.33400000     31.74200000     23.08700000
O      35.57400000     32.61800000     23.48300000
N      36.00000000     30.86000000     22.17200000
C      34.73800000     30.87500000     21.47300000
H      38.91700000     30.30600000     22.47600000
H      37.65300000     31.71100000     24.80600000
H      36.65600000     30.13900000     21.94800000
H      34.44500000     31.92400000     21.31900000
H      38.37820000     29.58820000     23.95940000
H      38.30060000     32.50360000     23.33460000
H      33.90320000     30.37660000     21.98740000
H      34.83590000     30.42250000     20.47520000
