7
pbedef2svp=-95.63935810427 b3lypdef2svp=-95.70886258238 b3lypvdz=-95.78024705387
N      32.76300000     35.83100000     23.09000000
C      34.14500000     35.47200000     23.48100000
H      32.48200000     36.79100000     23.10200000
H      34.41100000     34.50500000     23.02800000
H      32.10620000     35.12920000     22.81420000
H      34.21370000     35.38510000     24.57540000
H      34.82450000     36.23770000     23.07850000
