7
pbedef2svp=-153.52100905993 b3lypdef2svp=-153.62015273037 b3lypvdz=-153.74218185928
C      35.54100000     21.41800000     10.87100000
O      36.77200000     21.62300000     10.67600000
C      35.06400000     20.95700000     12.25500000
H      35.45300000     19.95000000     12.46600000
H      33.96400000     20.93800000     12.28200000
H      34.78600000     21.56440000     10.08450000
H      35.44150000     21.66610000     13.00640000
