18
pbedef2svp=-326.43370961663 b3lypdef2svp=-326.64862814279 b3lypvdz=-326.90036403578
N      20.80100000     27.93100000     22.57800000
C      21.55000000     26.79600000     23.13300000
C      23.04600000     27.08700000     22.91300000
O      23.38300000     27.62700000     21.87000000
C      21.24200000     25.51900000     22.39100000
C      19.76200000     25.07700000     22.45500000
C      19.63400000     23.88500000     21.53100000
H      20.84300000     28.09900000     21.59300000
H      21.34400000     26.67500000     24.20700000
H      21.51100000     25.66300000     21.33400000
H      21.85900000     24.71600000     22.82000000
H      19.49400000     24.79200000     23.48300000
H      19.10600000     25.89300000     22.11700000
H      20.63700000     23.57900000     21.19900000
H      19.16000000     23.05700000     22.07800000
H      20.25100000     28.54230000     23.14710000
H      23.74860000     26.78370000     23.70320000
H      19.02350000     24.12830000     20.64890000
