13
pbedef2svp=-174.09625746493 b3lypdef2svp=-174.22149168928 b3lypvdz=-174.35112179645
C      25.88400000     39.13900000     14.61500000
N      27.75100000     35.86700000     13.74000000
C      27.69100000     37.31500000     14.14300000
C      26.21900000     37.68400000     14.30700000
H      26.30200000     39.41600000     15.59400000
H      26.30900000     39.79000000     13.83700000
H      27.09800000     35.21600000     14.12700000
H      28.13900000     37.93800000     13.35500000
H      25.70800000     37.42000000     13.36900000
H      25.81700000     37.07300000     15.12800000
H      24.78990000     39.25080000     14.63420000
H      28.44000000     35.55160000     13.08750000
H      28.26010000     37.43200000     15.07710000
