17
pbedef2svp=-379.503696188
C      20.83500000     28.62900000     18.90400000
O      20.82100000     27.73400000     19.74900000
C      18.79100000     24.22100000     20.31300000
N      17.44000000     24.65500000     20.82700000
C      20.08300000     28.72900000     23.32100000
O      19.99100000     28.58400000     24.56100000
N      20.80100000     27.93100000     22.57800000
H      21.75670000     28.93810000     18.38930000
H      19.97480000     29.25760000     18.63040000
H      19.25900000     25.03600000     19.74100000
H      18.68500000     23.33500000     19.66900000
H      16.84800000     24.88700000     20.05500000
H      17.02800000     23.91000000     21.35100000
H      19.40150000     23.97770000     21.19510000
H      20.84300000     28.09900000     21.59300000
H      19.58350000     29.57980000     22.83460000
H      21.31100000     27.15820000     22.95590000
