17
pbedef2svp=-288.37048191047
C      24.51700000     21.47000000     20.03000000
O      25.24800000     21.30200000     21.19100000
C      25.05200000     21.28500000     18.77600000
N      27.94200000     22.44800000     21.64800000
C      29.01500000     21.65700000     22.28800000
C      28.34800000     20.54000000     23.06600000
H      26.12400000     21.00400000     20.97400000
H      26.07000000     20.94100000     18.66600000
H      23.48040000     21.81500000     20.15790000
H      24.43870000     21.48870000     17.88590000
H      27.17100000     21.98000000     21.21600000
H      29.58400000     22.29400000     22.98200000
H      27.77300000     21.00700000     23.87900000
H      27.66000000     20.02800000     22.37700000
H      27.98100000     23.44720000     21.64430000
H      29.69310000     21.25390000     21.52140000
H      28.98750000     19.76900000     23.52050000
