24
pbedef2svp=-238.91783007996
C      30.41600000     28.91200000     17.98000000
C      29.15100000     28.65500000     18.75500000
C      25.93100000     25.84400000     18.95900000
C      26.20300000     26.08300000     17.47100000
C      27.39300000     28.44200000     14.22900000
C      26.29000000     29.48000000     13.96000000
H      31.24500000     29.08800000     18.68100000
H      29.23500000     27.64100000     19.17300000
H      28.32300000     28.68600000     18.03100000
H      30.64830000     28.03280000     17.36110000
H      30.26450000     29.81400000     17.36890000
H      28.87000000     29.31810000     19.58640000
H      25.90600000     26.81600000     19.47400000
H      25.39600000     26.69700000     17.04400000
H      27.16300000     26.60700000     17.35300000
H      26.24600000     25.11700000     16.94600000
H      26.73110000     25.23090000     19.39940000
H      24.94360000     25.36710000     19.04650000
H      27.34200000     27.64700000     13.47100000
H      28.37700000     28.93200000     14.18100000
H      27.24900000     28.00500000     15.22800000
H      26.46700000     29.91100000     12.96300000
H      26.30460000     30.29590000     14.69760000
H      25.30590000     28.98870000     13.95420000
