18
pbedef2svp=-326.48477122833 b3lypdef2svp=-326.69794909355 b3lypvdz=-326.94823122431
C      27.33100000     29.31700000     20.36400000
O      27.10100000     28.34600000     21.09700000
N      26.43600000     30.23200000     20.00400000
C      25.03400000     30.17000000     20.40100000
C      24.63900000     31.42600000     21.28600000
C      25.64600000     31.67000000     22.42100000
C      23.18100000     31.30900000     21.82400000
H      26.73800000     30.99700000     19.43500000
H      24.85900000     29.26400000     21.00000000
H      24.67100000     32.30400000     20.62400000
H      26.63000000     31.89000000     21.98200000
H      25.30900000     32.53200000     23.01600000
H      22.94200000     32.19400000     22.43200000
H      22.48200000     31.24600000     20.97700000
H      23.09000000     30.40400000     22.44300000
H      28.36380000     29.50180000     20.03350000
H      24.36060000     30.15480000     19.53130000
H      25.73940000     30.79640000     23.08290000
