10
pbedef2svp=-192.7464118173 b3lypdef2svp=-192.87425915286 b3lypvdz=-193.02526139961
C      26.54100000     18.73200000      9.25100000
O      26.33300000     18.53600000     10.45700000
C      24.46900000     19.33200000      7.95200000
C      25.82900000     19.82500000      8.49400000
H      24.49800000     18.25500000      7.73000000
H      23.65900000     19.53700000      8.66800000
H      25.66900000     20.69300000      9.15000000
H      27.22310000     18.08900000      8.67540000
H      24.34380000     19.92280000      7.03260000
H      26.37750000     20.12180000      7.58790000
