14
pbedef2svp=-249.2133152755
C      35.92600000     35.97900000     21.73700000
C      36.53300000     37.08700000     20.91700000
C      40.76000000     34.03600000     23.39400000
O      41.97500000     34.00800000     23.62400000
N      40.14000000     35.00700000     22.77500000
H      36.73600000     35.36100000     22.15200000
H      37.11000000     36.65500000     20.08600000
H      35.73300000     37.72600000     20.51500000
H      37.20000000     37.68900000     21.55100000
H      35.34590000     36.39700000     22.57290000
H      35.25950000     35.33270000     21.14700000
H      40.65400000     35.80100000     22.45000000
H      39.15200000     34.95500000     22.62700000
H      40.15040000     33.17930000     23.71730000
