11
pbedef2svp=-267.82684676967 b3lypdef2svp=-267.99571042736 b3lypvdz=-268.20862672965
C      28.05400000     16.83500000      9.21000000
C      29.25800000     17.31800000      9.98400000
O      29.93000000     16.47700000     10.60600000
C      28.52300000     15.82000000      8.18200000
O      28.94600000     16.44500000      6.96700000
H      27.36300000     16.33700000      9.90600000
H      29.36700000     15.25300000      8.60200000
H      27.69400000     15.13200000      7.95800000
H      29.23100000     15.78000000      6.35100000
H      27.53620000     17.67480000      8.72360000
H      29.53900000     18.37370000      9.85540000
