14
pbedef2svp=-249.21399269465
C      27.42600000     22.61600000     11.90200000
C      27.71800000     23.34100000     10.57800000
O      28.44900000     20.67400000      8.36000000
N      26.55900000     20.22000000      7.28800000
C      27.81900000     20.60900000      7.31600000
H      28.23400000     21.90500000     12.13000000
H      28.68700000     23.85800000     10.64800000
H      27.75200000     22.60800000      9.75900000
H      26.92400000     24.07600000     10.38000000
H      26.46010000     22.09200000     11.85230000
H      27.39290000     23.41200000     12.66050000
H      26.06040000     19.95020000      8.11180000
H      25.98970000     20.14450000      6.46940000
H      28.28810000     20.84830000      6.35030000
