15
pbedef2svp=-647.10587140555 b3lypdef2svp=-647.39238392771 b3lypvdz=-647.71341637474
N      20.29100000     24.87500000      9.50700000
C      21.11000000     24.11100000     10.17300000
O      21.84100000     23.19800000      9.68600000
C      25.35300000     24.86000000      5.13400000
S      23.93000000     23.95900000      5.90400000
C      24.44700000     23.98400000      7.62000000
H      19.77500000     25.56800000     10.01100000
H      20.15030000     24.80670000      8.51930000
H      21.16330000     24.22050000     11.26620000
H      26.29500000     24.33800000      5.35600000
H      25.40300000     25.88800000      5.52200000
H      23.69300000     23.47500000      8.23800000
H      25.41300000     23.46700000      7.71900000
H      24.55300000     25.02600000      7.95600000
H      25.17680000     24.87460000      4.04830000
