14
pbedef2svp=-361.14349261681 b3lypdef2svp=-361.36333885013 b3lypvdz=-361.6491058276
C      21.46000000     18.73700000     16.16300000
O      20.49700000     18.50600000     16.90000000
C      22.92400000     18.58300000     12.02500000
C      22.22900000     18.24400000     13.32500000
O      20.96300000     18.25300000     13.39500000
N      22.99700000     17.97800000     14.36600000
C      22.41800000     17.63800000     15.69300000
H      22.28300000     19.29200000     11.48000000
H      23.99100000     18.00600000     14.25900000
H      21.81600000     16.72700000     15.56300000
H      21.78600000     19.76470000     15.94510000
H      23.89930000     19.06470000     12.18880000
H      23.02070000     17.68240000     11.40090000
H      23.17780000     17.41440000     16.45640000
