23
pbedef2svp=-312.82433287822
C      29.54200000     39.02000000     10.65300000
C      28.11300000     39.04900000     10.01500000
O      27.28000000     39.72200000     10.99600000
C      27.58800000     37.63500000      9.71500000
C      25.88400000     39.13900000     14.61500000
C      27.69100000     37.31500000     14.14300000
C      26.21900000     37.68400000     14.30700000
H      29.47700000     38.47800000     11.60800000
H      28.15100000     39.62800000      9.08100000
H      26.38900000     39.77600000     10.67200000
H      26.58500000     37.70300000      9.26900000
H      28.26800000     37.13300000      9.01200000
H      27.53600000     37.05800000     10.65000000
H      30.00500000     40.00260000     10.82670000
H      30.22710000     38.47380000      9.98800000
H      26.30200000     39.41600000     15.59400000
H      26.30900000     39.79000000     13.83700000
H      28.13900000     37.93800000     13.35500000
H      25.70800000     37.42000000     13.36900000
H      25.81700000     37.07300000     15.12800000
H      24.78990000     39.25080000     14.63420000
H      27.73490000     36.25610000     13.84830000
H      28.26010000     37.43200000     15.07710000
