13
pbedef2svp=-323.10824267475 b3lypdef2svp=-323.30970609056 b3lypvdz=-323.56579446449
C      28.37500000     17.99900000     16.88700000
O      29.32600000     18.78600000     16.69000000
C      28.10800000     17.43900000     18.27600000
N      31.11300000     20.86300000     15.86000000
C      31.59300000     20.55300000     14.65500000
O      32.15900000     21.31100000     13.86100000
H      27.85100000     16.37300000     18.19200000
H      27.64840000     17.73860000     16.10330000
H      29.02550000     17.55440000     18.87180000
H      27.25840000     17.97950000     18.71880000
H      30.62600000     20.16900000     16.39000000
H      31.23290000     21.77950000     16.24150000
H      31.45430000     19.49380000     14.39250000
