5
pbedef2svp=-40.4144319558 b3lypdef2svp=-40.45131977135 b3lypvdz=-40.47986459321
C      28.11300000     39.04900000     10.01500000
H      28.15100000     39.62800000      9.08100000
H      29.11730000     39.02860000     10.46340000
H      27.48210000     39.55870000     10.75800000
H      27.73750000     38.03760000      9.80040000
