13
pbedef2svp=-231.92187039598
C      21.46600000     30.95300000      7.26100000
O      21.06600000     32.11200000      7.53300000
C      25.69500000     34.49800000      8.94600000
C      25.28800000     34.60900000      7.49900000
C      24.14700000     33.96600000      7.03800000
H      21.78930000     30.66710000      6.24920000
H      21.63880000     30.18940000      8.03370000
H      24.80600000     34.23900000      9.53900000
H      26.08400000     35.47300000      9.27400000
H      23.51900000     33.41800000      7.72500000
H      26.46770000     33.73610000      9.12610000
H      25.94760000     35.18220000      6.83090000
H      23.88440000     34.01700000      5.97100000
