8
pbedef2svp=-79.63666609548 b3lypdef2svp=-79.70176085325 b3lypvdz=-79.75951591478
C      31.74400000     38.87900000     16.29900000
C      30.22500000     38.64300000     16.66200000
H      32.36600000     38.76400000     17.19900000
H      30.16200000     37.75100000     17.30200000
H      31.73870000     39.91890000     15.94050000
H      32.11290000     38.22830000     15.49250000
H      29.62730000     38.48370000     15.75240000
H      29.82170000     39.50280000     17.21700000
