11
pbedef2svp=-118.86647369266 b3lypdef2svp=-118.9595087395 b3lypvdz=-119.04638966372
C      26.08400000     21.88800000     11.83300000
C      27.42600000     22.61600000     11.90200000
C      27.71800000     23.34100000     10.57800000
H      26.14900000     21.16800000     11.00400000
H      25.31800000     22.64300000     11.60300000
H      28.23400000     21.90500000     12.13000000
H      28.68700000     23.85800000     10.64800000
H      27.75200000     22.60800000      9.75900000
H      26.92400000     24.07600000     10.38000000
H      25.73480000     21.33280000     12.71610000
H      27.39290000     23.41200000     12.66050000
