14
pbedef2svp=-158.04698007489
C      21.32500000     28.81300000     15.00500000
C      20.36900000     28.64800000     14.00100000
C      24.94200000     28.80700000     13.95200000
C      26.29000000     29.48000000     13.96000000
H      21.97400000     29.67600000     14.99200000
H      20.22700000     29.39700000     13.23600000
H      21.42110000     28.06910000     15.80960000
H      19.76570000     27.72830000     14.01650000
H      24.94200000     27.99400000     13.21100000
H      24.73300000     28.39300000     14.95000000
H      24.16700000     29.54200000     13.69000000
H      26.46700000     29.91100000     12.96300000
H      26.30460000     30.29590000     14.69760000
H      27.07870000     28.73780000     14.15240000
