7
pbedef2svp=-149.70230166118 b3lypdef2svp=-149.7963278058 b3lypvdz=-149.91371593851
C      34.33800000     29.10300000     26.65000000
N      34.11000000     28.43700000     27.76800000
N      34.01400000     28.65700000     25.45700000
H      33.66800000     27.54100000     27.73500000
H      34.38000000     28.82900000     28.64700000
H      33.57700000     27.75900000     25.49900000
H      34.91050000     30.04000000     26.71520000
