13
pbedef2svp=-265.20917086724
N      29.42600000     38.43000000     15.44600000
C      30.22500000     38.64300000     16.66200000
N      30.12400000     34.53300000     21.19100000
C      30.05200000     35.04200000     20.00400000
O      30.10500000     36.30500000     19.78800000
H      29.59100000     38.99300000     14.63600000
H      30.16200000     37.75100000     17.30200000
H      28.71830000     37.72380000     15.42680000
H      29.82170000     39.50280000     17.21700000
H      31.28290000     38.80740000     16.40920000
H      29.93800000     33.55900000     21.31800000
H      30.36200000     35.09350000     21.98420000
H      29.86790000     34.38390000     19.14200000
