16
pbedef2svp=-362.31872430874
C      23.04600000     27.08700000     22.91300000
O      23.38300000     27.62700000     21.87000000
C      28.76200000     29.57300000     19.90600000
C      27.33100000     29.31700000     20.36400000
O      27.10100000     28.34600000     21.09700000
N      26.43600000     30.23200000     20.00400000
C      25.03400000     30.17000000     20.40100000
H      21.97730000     26.87910000     23.07020000
H      23.74860000     26.78370000     23.70320000
H      28.81600000     30.60900000     19.54100000
H      26.73800000     30.99700000     19.43500000
H      24.85900000     29.26400000     21.00000000
H      29.45240000     29.47150000     20.75640000
H      29.04300000     28.90990000     19.07460000
H      24.36060000     30.15480000     19.53130000
H      24.76010000     31.04090000     21.01460000
