12
pbedef2svp=-248.03534645656 b3lypdef2svp=-248.19450644683 b3lypvdz=-248.38678996371
C      21.55000000     26.79600000     23.13300000
C      23.04600000     27.08700000     22.91300000
O      23.38300000     27.62700000     21.87000000
C      21.24200000     25.51900000     22.39100000
N      23.88000000     26.72700000     23.85100000
H      21.34400000     26.67500000     24.20700000
H      21.51100000     25.66300000     21.33400000
H      21.85900000     24.71600000     22.82000000
H      23.53200000     26.35300000     24.71100000
H      20.98910000     27.64600000     22.71730000
H      20.18890000     25.20450000     22.43650000
H      24.86540000     26.82430000     23.71150000
