20
pbedef2svp=-364.69928384202
C      27.29900000     17.05500000     13.53300000
O      25.92500000     16.61100000     13.91300000
C      27.42600000     22.61600000     11.90200000
C      27.38000000     23.72100000     12.95500000
N      31.51000000     18.93600000     12.85200000
C      30.49100000     19.16200000     12.04000000
O      29.36700000     19.52300000     12.44100000
H      27.28300000     17.48700000     12.52200000
H      25.65000000     15.90600000     13.33900000
H      27.49310000     17.85740000     14.25990000
H      27.97910000     16.19060000     13.55110000
H      28.23400000     21.90500000     12.13000000
H      28.35200000     24.23400000     12.99200000
H      26.59400000     24.44400000     12.69300000
H      27.16100000     23.28100000     13.93900000
H      26.46010000     22.09200000     11.85230000
H      27.63490000     23.13470000     10.95470000
H      32.38900000     18.66700000     12.45900000
H      31.43240000     19.02460000     13.84500000
H      30.71360000     19.10430000     10.96430000
