17
pbedef2svp=-342.50072465223 b3lypdef2svp=-342.71715600439 b3lypvdz=-342.98168224646
N      22.09900000     29.16300000      5.60500000
C      21.90700000     30.56300000      5.88100000
C      21.46600000     30.95300000      7.26100000
O      21.06600000     32.11200000      7.53300000
C      21.02300000     31.22300000      4.78400000
C      21.86100000     31.34200000      3.47400000
N      21.67400000     30.03400000      8.19100000
H      23.03200000     28.85400000      5.42200000
H      22.89500000     31.02900000      5.75500000
H      20.13500000     30.60100000      4.60000000
H      20.70800000     32.22400000      5.11400000
H      22.03900000     32.40600000      3.26000000
H      22.82400000     30.83100000      3.61900000
H      22.02400000     29.14200000      7.90400000
H      21.37400000     28.47460000      5.58190000
H      21.34160000     30.88810000      2.61710000
H      21.50030000     30.18320000      9.16440000
