13
pbedef2svp=-265.21073473526
C      35.61200000     30.57700000     28.04400000
N      35.04000000     30.25200000     26.73000000
C      38.36500000     29.33500000     24.15900000
O      37.68400000     29.39000000     25.22100000
N      38.41900000     30.37300000     23.34100000
H      36.60000000     30.10400000     28.14300000
H      34.94700000     30.20600000     28.83800000
H      35.16400000     30.85000000     25.93800000
H      35.71550000     31.66880000     28.12970000
H      34.51960000     29.40020000     26.67070000
H      38.91700000     30.30600000     22.47600000
H      38.86900000     28.41650000     23.82390000
H      37.95980000     31.22540000     23.59120000
