10
pbedef2svp=-155.63565188563 b3lypdef2svp=-155.74693047575 b3lypvdz=-155.86628559159
C      21.44700000     27.86900000     16.02600000
C      21.32500000     28.81300000     15.00500000
C      20.63800000     26.73500000     16.05300000
C      19.67700000     26.53900000     15.05100000
H      21.97400000     29.67600000     14.99200000
H      20.75100000     26.00800000     16.84400000
H      19.01600000     25.68500000     15.08000000
H      22.20570000     28.00520000     16.81080000
H      20.57180000     28.68300000     14.21400000
H      19.61040000     27.27310000     14.23450000
