14
pbedef2svp=-361.13539697972 b3lypdef2svp=-361.35591172818 b3lypvdz=-361.64179019155
C      39.07600000     34.93100000     29.03100000
O      38.29700000     34.94600000     29.99600000
C      35.16100000     34.17400000     26.89600000
C      36.67100000     34.29600000     27.08900000
O      37.30500000     33.23300000     26.79500000
N      37.19700000     35.39700000     27.51300000
C      38.66800000     35.50200000     27.68000000
H      34.63100000     34.92600000     27.50000000
H      36.61300000     36.17900000     27.72900000
H      39.13700000     34.87600000     26.90700000
H      40.08790000     34.49980000     29.04260000
H      34.98910000     34.33030000     25.82080000
H      34.84230000     33.15910000     27.17590000
H      38.96580000     36.54220000     27.48190000
