7
pbedef2svp=-95.64070507855 b3lypdef2svp=-95.71021924253 b3lypvdz=-95.78148414186
C      41.89600000     30.08000000     30.45600000
N      43.31100000     29.73500000     30.56300000
H      41.30800000     29.34500000     31.02600000
H      41.60100000     30.04400000     29.39700000
H      43.64900000     29.35700000     31.42500000
H      41.68370000     31.08530000     30.84880000
H      43.95570000     29.86200000     29.80920000
