20
pbedef2svp=-327.56594693827
N      24.79000000     32.02100000     13.61800000
C      25.14900000     31.60900000     14.98000000
C      22.82400000     34.51400000     17.78200000
C      23.97800000     35.12100000     18.12600000
C      25.03400000     30.17000000     20.40100000
C      24.10100000     30.14900000     19.19600000
O      24.19600000     30.94800000     18.28700000
H      25.50600000     32.15100000     12.93200000
H      24.28500000     31.20800000     15.53000000
H      23.83250000     32.17270000     13.37280000
H      25.54030000     32.51210000     15.47110000
H      25.97710000     30.88500000     14.97070000
H      22.56500000     33.48000000     17.95500000
H      22.19620000     35.27230000     17.29120000
H      24.88150000     34.71460000     18.60410000
H      23.87700000     36.18030000     17.84720000
H      24.85900000     29.26400000     21.00000000
H      26.09140000     30.21680000     20.10160000
H      24.76010000     31.04090000     21.01460000
H      23.32440000     29.37080000     19.23240000
