15
pbedef2svp=-378.31814822005 b3lypdef2svp=-378.54852525999 b3lypvdz=-378.84857670788
N      32.76300000     35.83100000     23.09000000
C      31.90100000     34.91000000     22.72800000
O      32.19000000     33.69600000     22.63500000
N      32.47800000     30.91700000     22.26900000
C      31.20000000     30.32900000     22.78000000
C      30.21000000     30.50900000     21.65000000
O      29.97800000     31.72600000     21.26900000
H      32.48200000     36.79100000     23.10200000
H      33.69650000     35.58850000     23.35410000
H      30.88240000     35.23880000     22.47440000
H      32.49800000     31.87600000     21.98800000
H      31.35500000     29.25000000     22.92500000
H      33.31260000     30.37010000     22.20290000
H      30.94270000     30.76780000     23.75530000
H      29.78370000     29.62250000     21.15760000
