18
pbedef2svp=-326.48034359534 b3lypdef2svp=-326.69451940999 b3lypvdz=-326.94508064131
C      34.44100000     26.09900000     13.68400000
O      34.88300000     27.09000000     13.09300000
N      34.73400000     25.82200000     14.94900000
C      35.59600000     26.71500000     15.73600000
C      35.71500000     26.20300000     17.17200000
C      34.34300000     26.44500000     17.89800000
C      34.50900000     26.07700000     19.36000000
H      34.36300000     24.99500000     15.37200000
H      35.14500000     27.71800000     15.76300000
H      35.94800000     25.12800000     17.16500000
H      36.51400000     26.74800000     17.69600000
H      34.05700000     27.50400000     17.81100000
H      33.56400000     25.81600000     17.44200000
H      34.78800000     25.01600000     19.43700000
H      35.30300000     26.69700000     19.80200000
H      33.78620000     25.37640000     13.17490000
H      36.59410000     26.79530000     15.28070000
H      33.57070000     26.24550000     19.90870000
