15
pbedef2svp=-378.39074304878 b3lypdef2svp=-378.62189949667 b3lypvdz=-378.92006305582
C      20.14200000     21.59000000     15.14900000
O      19.49900000     22.64500000     15.32100000
N      19.99300000     20.88400000     14.04900000
C      22.92400000     18.58300000     12.02500000
C      22.22900000     18.24400000     13.32500000
O      20.96300000     18.25300000     13.39500000
N      22.99700000     17.97800000     14.36600000
H      20.50600000     20.03400000     13.92400000
H      20.82360000     21.26920000     15.95060000
H      19.36490000     21.20080000     13.33830000
H      22.28300000     19.29200000     11.48000000
H      23.99100000     18.00600000     14.25900000
H      23.89930000     19.06470000     12.18880000
H      23.02070000     17.68240000     11.40090000
H      22.60770000     17.74940000     15.25830000
