16
pbedef2svp=-362.33678007392 b3lypdef2svp=-362.56343409568 b3lypvdz=-362.84748383614
C      23.21200000     32.76200000     11.89100000
C      23.50900000     32.22400000     13.29000000
O      22.54400000     31.94200000     14.03400000
C      22.69900000     34.26700000     11.98500000
O      22.49500000     34.69000000     10.58900000
N      24.79000000     32.02100000     13.61800000
C      25.14900000     31.60900000     14.98000000
H      24.14700000     32.76300000     11.31200000
H      21.74500000     34.28200000     12.53300000
H      22.18600000     35.58800000     10.57200000
H      25.50600000     32.15100000     12.93200000
H      24.28500000     31.20800000     15.53000000
H      22.48450000     32.09600000     11.40400000
H      23.43720000     34.88740000     12.51420000
H      25.54030000     32.51210000     15.47110000
H      25.97710000     30.88500000     14.97070000
