10
pbedef2svp=-283.85301255428
C      20.83500000     28.62900000     18.90400000
O      20.82100000     27.73400000     19.74900000
N      23.88000000     26.72700000     23.85100000
C      23.04600000     27.08700000     22.91300000
O      23.38300000     27.62700000     21.87000000
H      21.75670000     28.93810000     18.38930000
H      19.97480000     29.25760000     18.63040000
H      23.53200000     26.35300000     24.71100000
H      24.86540000     26.82430000     23.71150000
H      21.97730000     26.87910000     23.07020000
