14
pbedef2svp=-303.25573694645 b3lypdef2svp=-303.44547462691 b3lypvdz=-303.68071812776
N      26.46500000     25.68900000     21.83300000
C      26.82600000     24.52100000     21.01200000
N      23.88000000     26.72700000     23.85100000
C      25.34900000     26.87200000     23.64300000
C      25.74300000     25.58600000     22.92200000
O      25.32500000     24.48900000     23.37800000
H      26.78200000     26.59400000     21.54900000
H      25.96700000     23.83400000     21.00400000
H      23.53200000     26.35300000     24.71100000
H      25.55800000     27.73800000     22.99800000
H      27.67130000     23.98540000     21.46870000
H      26.98190000     24.85930000     19.97700000
H      23.24130000     27.00270000     23.13260000
H      25.87450000     26.98350000     24.60290000
