18
pbedef2svp=-363.47029452862
C      21.32500000     28.81300000     15.00500000
C      20.36900000     28.64800000     14.00100000
C      21.63700000     28.92300000     10.35300000
O      20.54400000     28.04700000     10.05900000
N      24.79000000     32.02100000     13.61800000
C      23.50900000     32.22400000     13.29000000
O      22.54400000     31.94200000     14.03400000
H      21.97400000     29.67600000     14.99200000
H      20.22700000     29.39700000     13.23600000
H      21.42110000     28.06910000     15.80960000
H      19.76570000     27.72830000     14.01650000
H      22.57800000     28.46500000     10.01500000
H      21.68500000     29.10200000     11.43700000
H      20.74700000     27.53500000      9.28500000
H      21.48070000     29.87660000      9.82740000
H      25.50600000     32.15100000     12.93200000
H      25.03460000     31.74030000     14.54610000
H      23.29520000     32.61130000     12.28290000
