15
pbedef2svp=-378.37666770498 b3lypdef2svp=-378.60884063546 b3lypvdz=-378.90645947041
C      36.08300000     30.19400000     17.87500000
O      35.04800000     29.70200000     17.39300000
N      37.22800000     30.12600000     17.23300000
N      41.18900000     32.08500000     19.03100000
C      41.46100000     30.75100000     19.59400000
C      40.44900000     32.27800000     17.94500000
O      39.93600000     31.33600000     17.31500000
H      37.27600000     29.67300000     16.34300000
H      38.05100000     30.52700000     17.63500000
H      36.03110000     30.68130000     18.85980000
H      42.11200000     30.14800000     18.94400000
H      41.61300000     32.82380000     19.55480000
H      40.52370000     30.22540000     19.82890000
H      41.97880000     31.02680000     20.52450000
H      40.28750000     33.31930000     17.62930000
