12
pbedef2svp=-193.89288384947 b3lypdef2svp=-194.03200845743 b3lypvdz=-194.18265539374
C      21.32500000     28.81300000     15.00500000
C      20.36900000     28.64800000     14.00100000
C      21.63700000     28.92300000     10.35300000
O      20.54400000     28.04700000     10.05900000
H      21.97400000     29.67600000     14.99200000
H      20.22700000     29.39700000     13.23600000
H      21.42110000     28.06910000     15.80960000
H      19.76570000     27.72830000     14.01650000
H      22.57800000     28.46500000     10.01500000
H      21.68500000     29.10200000     11.43700000
H      20.74700000     27.53500000      9.28500000
H      21.48070000     29.87660000      9.82740000
