18
pbedef2svp=-235.26978653866
C      30.09100000     34.39300000      5.07800000
C      29.42000000     35.75600000      5.11900000
C      23.81200000     34.03100000      5.67700000
C      25.81000000     35.39200000      5.26700000
C      24.62000000     34.77800000      4.85300000
C      24.14700000     33.96600000      7.03800000
H      29.47000000     33.64700000      4.56000000
H      29.15200000     36.06400000      4.09800000
H      28.51000000     35.69800000      5.73500000
H      30.11200000     36.49200000      5.55400000
H      30.37980000     34.03800000      6.07830000
H      31.09520000     34.48230000      4.63800000
H      22.94800000     33.51100000      5.29000000
H      26.45800000     35.88500000      4.55700000
H      24.31900000     34.89900000      3.82300000
H      23.51900000     33.41800000      7.72500000
H      26.06400000     35.35620000      6.33670000
H      25.05090000     34.47540000      7.40320000
