9
pbedef2svp=-208.79206912235 b3lypdef2svp=-208.92265210199 b3lypvdz=-209.08558949136
O      29.80900000     29.39500000      5.54500000
N      31.83400000     28.41200000      5.12500000
C      31.22000000     27.34100000      4.27500000
C      31.02200000     29.28800000      5.66500000
H      32.82200000     28.45600000      5.27400000
H      30.13900000     27.52500000      4.18300000
H      31.38000000     26.42350000      4.86030000
H      31.66200000     27.28350000      3.26940000
H      31.49180000     29.99600000      6.36360000
