18
pbedef2svp=-326.48815628438 b3lypdef2svp=-326.70228640511 b3lypvdz=-326.95312374037
C      19.06500000     21.35200000     12.99900000
C      19.44200000     22.74500000     12.51000000
O      18.57100000     23.61000000     12.28900000
N      20.71700000     22.96400000     12.26000000
C      21.18400000     24.26300000     11.69000000
C      22.65000000     24.51600000     12.17200000
C      22.66200000     24.81900000     13.69900000
H      19.16200000     20.67100000     12.14100000
H      21.38500000     22.24600000     12.45600000
H      20.53700000     25.08800000     12.02200000
H      23.21600000     23.58600000     12.01300000
H      22.10700000     25.74900000     13.89000000
H      22.18400000     23.98900000     14.23900000
H      19.75590000     21.00360000     13.78080000
H      18.01610000     21.30240000     13.32660000
H      21.13070000     24.15350000     10.59680000
H      23.16720000     25.32030000     11.62840000
H      23.69790000     24.93390000     14.05070000
