16
pbedef2svp=-362.32899322121 b3lypdef2svp=-362.55842785498 b3lypvdz=-362.84344848965
N      22.09900000     29.16300000      5.60500000
C      21.12700000     28.24000000      5.57400000
O      19.95800000     28.46500000      5.84200000
C      26.85000000     29.02100000      3.89800000
C      26.10000000     29.25300000      5.20200000
O      24.86500000     29.02400000      5.33000000
C      26.73300000     30.14800000      2.90500000
H      23.03200000     28.85400000      5.42200000
H      21.96560000     30.13540000      5.79670000
H      21.50810000     27.23660000      5.33340000
H      27.91400000     28.87800000      4.13600000
H      27.50800000     29.99200000      2.14000000
H      25.73900000     30.07200000      2.44000000
H      26.47150000     28.10150000      3.42760000
H      26.72220000     29.58780000      6.04510000
H      26.84270000     31.17760000      3.27620000
