14
pbedef2svp=-212.09712868394 b3lypdef2svp=-212.24511277828 b3lypvdz=-212.40564419843
N      26.21400000     32.09700000      8.77100000
C      26.77200000     33.43600000      9.19700000
C      25.69500000     34.49800000      8.94600000
C      25.28800000     34.60900000      7.49900000
C      24.14700000     33.96600000      7.03800000
H      25.36900000     31.73600000      9.16600000
H      27.66100000     33.67200000      8.59400000
H      24.80600000     34.23900000      9.53900000
H      26.08400000     35.47300000      9.27400000
H      23.51900000     33.41800000      7.72500000
H      26.72330000     31.58690000      8.07790000
H      27.04930000     33.38190000     10.26010000
H      25.94760000     35.18220000      6.83090000
H      23.88440000     34.01700000      5.97100000
