17
pbedef2svp=-288.38356572402
C      23.04600000     27.08700000     22.91300000
O      23.38300000     27.62700000     21.87000000
C      23.18100000     31.30900000     21.82400000
N      26.43600000     30.23200000     20.00400000
C      25.03400000     30.17000000     20.40100000
C      24.63900000     31.42600000     21.28600000
H      21.97730000     26.87910000     23.07020000
H      23.74860000     26.78370000     23.70320000
H      22.94200000     32.19400000     22.43200000
H      22.48200000     31.24600000     20.97700000
H      23.09000000     30.40400000     22.44300000
H      26.73800000     30.99700000     19.43500000
H      24.85900000     29.26400000     21.00000000
H      24.67100000     32.30400000     20.62400000
H      27.10910000     29.54380000     20.27480000
H      24.36060000     30.15480000     19.53130000
H      25.35980000     31.60060000     22.09840000
