14
pbedef2svp=-303.26031385638 b3lypdef2svp=-303.45073650871 b3lypvdz=-303.68561241951
N      40.64200000     33.91600000     16.11200000
C      40.22600000     33.71600000     17.50900000
C      40.44900000     32.27800000     17.94500000
O      39.93600000     31.33600000     17.31500000
N      41.18900000     32.08500000     19.03100000
C      41.46100000     30.75100000     19.59400000
H      39.96500000     33.93300000     15.37700000
H      40.79400000     34.38800000     18.16900000
H      42.11200000     30.14800000     18.94400000
H      41.61440000     34.03500000     15.91110000
H      39.16150000     33.98680000     17.56870000
H      41.61300000     32.82380000     19.55480000
H      40.52370000     30.22540000     19.82890000
H      41.97880000     31.02680000     20.52450000
