9
pbedef2svp=-208.8096075009 b3lypdef2svp=-208.94071991133 b3lypvdz=-209.1038918447
O      28.44900000     20.67400000      8.36000000
N      26.55900000     20.22000000      7.28800000
C      28.46800000     20.94000000      5.98000000
C      27.81900000     20.60900000      7.31600000
H      27.69800000     21.22000000      5.24600000
H      26.06040000     19.95020000      8.11180000
H      25.98970000     20.14450000      6.46940000
H      29.15330000     21.77930000      6.16940000
H      29.00550000     20.04320000      5.63800000
