17
pbedef2svp=-288.39580124213
C      38.52800000     32.85400000     23.18200000
N      38.41900000     30.37300000     23.34100000
C      37.73800000     31.63700000     23.71200000
C      41.46100000     30.75100000     19.59400000
C      40.16800000     30.02600000     19.91800000
O      39.26400000     30.66200000     20.52100000
H      38.63400000     32.78100000     22.09000000
H      37.99600000     33.78200000     23.43800000
H      38.91700000     30.30600000     22.47600000
H      37.65300000     31.71100000     24.80600000
H      39.52240000     32.85400000     23.65240000
H      38.37820000     29.58820000     23.95940000
H      36.73540000     31.71200000     23.26570000
H      42.11200000     30.14800000     18.94400000
H      41.25790000     31.74700000     19.17360000
H      41.97880000     31.02680000     20.52450000
H      40.07650000     28.96140000     19.65690000
