11
pbedef2svp=-321.90670345084 b3lypdef2svp=-322.09969315119 b3lypvdz=-322.35612261128
C      26.54100000     18.73200000      9.25100000
O      26.33300000     18.53600000     10.45700000
N      27.36100000     17.95900000      8.55900000
C      28.05400000     16.83500000      9.21000000
C      29.25800000     17.31800000      9.98400000
O      29.93000000     16.47700000     10.60600000
H      27.51100000     18.13900000      7.58700000
H      27.36300000     16.33700000      9.90600000
H      26.02170000     19.52920000      8.69890000
H      28.39370000     16.09990000      8.46550000
H      29.53900000     18.37370000      9.85540000
