10
pbedef2svp=-192.68812500095
C      20.63800000     26.73500000     16.05300000
C      19.67700000     26.53900000     15.05100000
C      20.14200000     21.59000000     15.14900000
O      19.49900000     22.64500000     15.32100000
H      20.75100000     26.00800000     16.84400000
H      19.01600000     25.68500000     15.08000000
H      21.27670000     27.63030000     16.03170000
H      19.61040000     27.27310000     14.23450000
H      20.82360000     21.26920000     15.95060000
H      20.01740000     20.99970000     14.22920000
