10
pbedef2svp=-192.75081675933 b3lypdef2svp=-192.878976162 b3lypvdz=-193.02967472279
C      31.82700000     27.26200000      2.89400000
C      31.36300000     28.41000000      1.96200000
C      31.67100000     28.29100000      0.49800000
O      30.86900000     28.62100000     -0.36600000
H      32.92200000     27.30900000      2.98900000
H      31.53900000     26.30300000      2.43900000
H      30.27100000     28.49200000      2.06200000
H      31.83500000     29.33600000      2.32200000
H      31.38500000     27.31950000      3.89960000
H      32.68700000     27.91570000      0.30600000
