11
pbedef2svp=-264.04448692913 b3lypdef2svp=-264.2067660137 b3lypvdz=-264.41291233611
N      31.11300000     20.86300000     15.86000000
C      31.28800000     22.20100000     16.41700000
C      32.77600000     22.51900000     16.57700000
O      33.23300000     23.65900000     16.38400000
N      33.54800000     21.52600000     16.95000000
H      30.62600000     20.16900000     16.39000000
H      30.85300000     22.93800000     15.72600000
H      33.14600000     20.63400000     17.15600000
H      31.47290000     20.63050000     14.95640000
H      30.74430000     22.27110000     17.37060000
H      34.53630000     21.65660000     17.02930000
