5
pbedef2svp=-40.41436930044 b3lypdef2svp=-40.45123960114 b3lypvdz=-40.47978676061
C      31.67700000     30.27500000      6.63900000
H      32.72700000     30.46400000      6.36900000
H      31.07410000     31.19490000      6.65950000
H      31.20720000     29.56700000      5.94040000
H      31.59430000     29.85120000      7.65070000
