14
pbedef2svp=-269.91365899898
C      20.14200000     21.59000000     15.14900000
O      19.49900000     22.64500000     15.32100000
C      20.63800000     26.73500000     16.05300000
C      20.36900000     28.64800000     14.00100000
C      19.67700000     26.53900000     15.05100000
C      19.59300000     27.46500000     14.02100000
H      20.82360000     21.26920000     15.95060000
H      20.01740000     20.99970000     14.22920000
H      20.75100000     26.00800000     16.84400000
H      20.22700000     29.39700000     13.23600000
H      19.01600000     25.68500000     15.08000000
H      18.91100000     27.27600000     13.20500000
H      21.27670000     27.63030000     16.03170000
H      21.12220000     28.77800000     14.79200000
