13
pbedef2svp=-377.19155205172 b3lypdef2svp=-377.41449175917 b3lypvdz=-377.71239916949
C      28.37500000     17.99900000     16.88700000
O      29.32600000     18.78600000     16.69000000
N      27.51000000     17.68900000     15.95400000
C      30.32000000     16.69800000     19.05100000
O      30.19800000     15.65700000     18.36600000
N      29.34000000     17.59400000     19.07600000
C      28.10800000     17.43900000     18.27600000
H      26.75900000     17.07400000     16.19600000
H      29.44000000     18.40200000     19.65700000
H      27.85100000     16.37300000     18.19200000
H      27.55320000     18.02870000     15.01450000
H      31.24010000     16.89260000     19.62160000
H      27.25840000     17.97950000     18.71880000
