12
pbedef2svp=-193.91687924555 b3lypdef2svp=-194.0538319477 b3lypvdz=-194.20416293704
C      42.19500000     31.14200000     20.91300000
C      42.90400000     32.41400000     20.55300000
C      40.76000000     34.03600000     23.39400000
O      41.97500000     34.00800000     23.62400000
H      41.47600000     31.30900000     21.72900000
H      42.91200000     30.36200000     21.21000000
H      43.23600000     32.95400000     21.45200000
H      43.76900000     32.21800000     19.90300000
H      41.67720000     30.86620000     19.98250000
H      42.12220000     32.97330000     20.01830000
H      40.15040000     33.17930000     23.71730000
H      40.23850000     34.85270000     22.87340000
