12
pbedef2svp=-248.03300397312 b3lypdef2svp=-248.19164743264 b3lypvdz=-248.38410322752
C      30.22500000     38.64300000     16.66200000
C      29.66400000     39.83900000     17.43400000
O      28.85000000     40.56500000     16.85900000
C      31.74400000     38.87900000     16.29900000
N      30.13200000     40.06900000     18.64200000
H      30.16200000     37.75100000     17.30200000
H      32.36600000     38.76400000     17.19900000
H      30.85500000     39.48300000     19.00900000
H      29.62730000     38.48370000     15.75240000
H      31.73870000     39.91890000     15.94050000
H      32.11290000     38.22830000     15.49250000
H      29.77730000     40.81960000     19.19940000
