14
pbedef2svp=-249.21520355169
C      24.57700000     25.19000000     19.07900000
C      25.93100000     25.84400000     18.95900000
N      26.43600000     30.23200000     20.00400000
C      27.33100000     29.31700000     20.36400000
O      27.10100000     28.34600000     21.09700000
H      23.81400000     25.84000000     18.62600000
H      24.59000000     24.22100000     18.55800000
H      24.33900000     25.03100000     20.14100000
H      25.90600000     26.81600000     19.47400000
H      26.73110000     25.23090000     19.39940000
H      26.12640000     26.01570000     17.89020000
H      26.73800000     30.99700000     19.43500000
H      25.47470000     30.18950000     20.27620000
H      28.36380000     29.50180000     20.03350000
