16
pbedef2svp=-213.32406485645 b3lypdef2svp=-213.47654544009 b3lypvdz=-213.63518978876
N      29.69400000     29.43600000     21.05400000
C      28.76200000     29.57300000     19.90600000
C      29.15100000     28.65500000     18.75500000
C      30.41600000     28.91200000     17.98000000
C      30.20500000     30.16800000     17.12900000
H      29.93800000     28.52400000     21.38400000
H      28.81600000     30.60900000     19.54100000
H      29.23500000     27.64100000     19.17300000
H      28.32300000     28.68600000     18.03100000
H      31.24500000     29.08800000     18.68100000
H      31.11700000     30.37800000     16.55200000
H      29.36400000     30.00600000     16.43900000
H      29.98200000     31.02200000     17.78500000
H      30.08150000     30.24190000     21.50160000
H      27.72920000     29.38820000     20.23650000
H      30.64830000     28.03280000     17.36110000
