15
pbedef2svp=-378.37717120337
N      23.88000000     26.72700000     23.85100000
C      23.04600000     27.08700000     22.91300000
O      23.38300000     27.62700000     21.87000000
N      26.43600000     30.23200000     20.00400000
C      25.03400000     30.17000000     20.40100000
C      27.33100000     29.31700000     20.36400000
O      27.10100000     28.34600000     21.09700000
H      23.53200000     26.35300000     24.71100000
H      24.86540000     26.82430000     23.71150000
H      21.97730000     26.87910000     23.07020000
H      26.73800000     30.99700000     19.43500000
H      24.85900000     29.26400000     21.00000000
H      24.36060000     30.15480000     19.53130000
H      24.76010000     31.04090000     21.01460000
H      28.36380000     29.50180000     20.03350000
