13
pbedef2svp=-323.03199559882 b3lypdef2svp=-323.2348586242 b3lypvdz=-323.49249275607
C      25.69800000     32.87600000     15.66900000
O      26.15800000     33.73000000     14.89400000
N      27.75100000     35.86700000     13.74000000
C      27.69100000     37.31500000     14.14300000
C      28.46900000     37.47500000     15.42000000
O      28.21300000     36.75300000     16.41100000
H      25.30670000     31.97290000     15.17790000
H      25.63210000     32.93510000     16.76540000
H      27.09800000     35.21600000     14.12700000
H      28.13900000     37.93800000     13.35500000
H      28.44000000     35.55160000     13.08750000
H      26.63020000     37.58090000     14.26120000
H      29.24750000     38.25190000     15.44120000
