9
pbedef2svp=-208.8069486111 b3lypdef2svp=-208.93783378373 b3lypvdz=-209.10118738153
N      26.33500000     27.77000000      3.25800000
C      26.26600000     25.41300000      2.84200000
C      26.91300000     26.63900000      3.53100000
O      27.88600000     26.46300000      4.26300000
H      25.55800000     27.80400000      2.63000000
H      25.88000000     25.74300000      1.86700000
H      26.67910000     28.60590000      3.68560000
H      27.06770000     24.67930000      2.67180000
H      25.42290000     25.02360000      3.43160000
