20
pbedef2svp=-364.65428851745
C      27.29900000     17.05500000     13.53300000
O      25.92500000     16.61100000     13.91300000
N      22.99700000     17.97800000     14.36600000
C      22.41800000     17.63800000     15.69300000
C      26.54100000     18.73200000      9.25100000
O      26.33300000     18.53600000     10.45700000
C      25.82900000     19.82500000      8.49400000
H      27.28300000     17.48700000     12.52200000
H      25.65000000     15.90600000     13.33900000
H      27.49310000     17.85740000     14.25990000
H      27.97910000     16.19060000     13.55110000
H      23.99100000     18.00600000     14.25900000
H      21.81600000     16.72700000     15.56300000
H      22.41550000     18.17940000     13.57780000
H      21.73010000     18.42720000     16.03050000
H      23.17780000     17.41440000     16.45640000
H      25.66900000     20.69300000      9.15000000
H      27.22310000     18.08900000      8.67540000
H      26.37750000     20.12180000      7.58790000
H      24.86060000     19.47400000      8.10810000
