10
pbedef2svp=-188.92875388422 b3lypdef2svp=-189.05016791689 b3lypvdz=-189.19537315041
C      27.13200000     32.42300000     26.57400000
N      27.63000000     33.65600000     26.46100000
C      29.27100000     31.31400000     26.01600000
N      27.87500000     31.31700000     26.44300000
H      26.91600000     34.35400000     26.51200000
H      29.85100000     30.66900000     26.69200000
H      29.66200000     32.34100000     26.06300000
H      27.44700000     30.43800000     26.65100000
H      26.04450000     32.32100000     26.70400000
H      29.37330000     30.93820000     24.98730000
