11
pbedef2svp=-118.8642933645 b3lypdef2svp=-118.95721891183 b3lypvdz=-119.04414748545
C      32.99500000     35.88300000      9.93400000
C      33.30600000     34.38100000      9.84000000
C      33.10900000     36.38100000     11.43500000
H      33.82000000     36.38500000      9.40700000
H      32.43400000     33.80800000     10.18800000
H      33.52200000     34.12000000      8.79300000
H      34.05800000     36.03000000     11.86700000
H      33.08000000     37.48000000     11.46000000
H      32.26900000     35.97900000     12.02000000
H      32.08300000     36.17340000      9.39180000
H      34.17690000     34.13080000     10.46360000
