7
pbedef2svp=-153.52055666353 b3lypdef2svp=-153.61971390981 b3lypvdz=-153.74165501699
C      41.46100000     30.75100000     19.59400000
C      40.16800000     30.02600000     19.91800000
O      39.26400000     30.66200000     20.52100000
H      42.11200000     30.14800000     18.94400000
H      41.25790000     31.74700000     19.17360000
H      41.97880000     31.02680000     20.52450000
H      40.07650000     28.96140000     19.65690000
