18
pbedef2svp=-214.51623282977
C      33.30600000     34.38100000      9.84000000
C      34.53500000     34.02800000     10.72000000
C      36.35100000     33.61300000      7.83800000
C      36.32200000     32.94400000      6.47700000
N      35.76800000     33.94500000      5.48900000
H      32.43400000     33.80800000     10.18800000
H      33.52200000     34.12000000      8.79300000
H      34.74500000     32.95100000     10.64200000
H      35.41000000     34.59800000     10.37300000
H      34.32100000     34.28500000     11.76800000
H      33.08340000     35.45610000      9.90730000
H      35.32500000     33.67300000      8.23000000
H      36.76200000     34.62700000      7.73100000
H      37.34000000     32.64900000      6.18200000
H      35.67700000     32.05300000      6.51000000
H      35.73600000     33.53300000      4.57900000
H      34.84500000     34.21200000      5.76700000
H      36.97340000     33.04650000      8.54630000
