18
pbedef2svp=-272.33172533734
C      29.94200000     21.10600000     21.24000000
O      29.47000000     20.67700000     20.19000000
C      26.92600000     18.19100000     18.89200000
C      26.62100000     17.79900000     20.35200000
C      24.51700000     21.47000000     20.03000000
C      25.05200000     21.28500000     18.77600000
H      29.26390000     21.50910000     22.00660000
H      31.02640000     21.09260000     21.42400000
H      27.14900000     19.26800000     18.86300000
H      26.03200000     17.98500000     18.28500000
H      27.54500000     17.79200000     20.94900000
H      25.90200000     18.50300000     20.79700000
H      27.77560000     17.65050000     18.44920000
H      26.18900000     16.78870000     20.30110000
H      26.07000000     20.94100000     18.66600000
H      23.48040000     21.81500000     20.15790000
H      25.09870000     21.33630000     20.95400000
H      24.43870000     21.48870000     17.88590000
