15
pbedef2svp=-287.26042195429 b3lypdef2svp=-287.44645677997 b3lypvdz=-287.6680862401
C      37.73800000     31.63700000     23.71200000
C      38.52800000     32.85400000     23.18200000
C      39.91900000     32.85400000     23.84000000
C      40.76000000     34.03600000     23.39400000
O      41.97500000     34.00800000     23.62400000
N      40.14000000     35.00700000     22.77500000
H      37.65300000     31.71100000     24.80600000
H      38.63400000     32.78100000     22.09000000
H      37.99600000     33.78200000     23.43800000
H      39.79500000     32.89900000     24.93200000
H      40.44000000     31.92400000     23.56800000
H      40.65400000     35.80100000     22.45000000
H      39.15200000     34.95500000     22.62700000
H      38.24310000     30.69940000     23.43680000
H      36.73540000     31.71200000     23.26570000
