8
pbedef2svp=-79.63905775783 b3lypdef2svp=-79.70427884294 b3lypvdz=-79.76196004883
C      22.08500000     22.25400000     16.58100000
C      21.07900000     21.14900000     16.25100000
H      22.74300000     22.39600000     15.71100000
H      21.52900000     23.18300000     16.77600000
H      20.48400000     20.94600000     17.15300000
H      22.71140000     22.03330000     17.45790000
H      21.65630000     20.24960000     15.99060000
H      20.39740000     21.46980000     15.44940000
