21
pbedef2svp=-311.54995512419
C      24.10100000     30.14900000     19.19600000
O      24.19600000     30.94800000     18.28700000
C      22.82400000     34.51400000     17.78200000
C      23.97800000     35.12100000     18.12600000
C      25.14900000     31.60900000     14.98000000
C      26.31000000     30.59400000     14.96700000
C      26.29000000     29.48000000     13.96000000
H      24.77440000     30.16420000     20.06570000
H      23.32440000     29.37080000     19.23240000
H      22.56500000     33.48000000     17.95500000
H      22.19620000     35.27230000     17.29120000
H      24.88150000     34.71460000     18.60410000
H      23.87700000     36.18030000     17.84720000
H      24.28500000     31.20800000     15.53000000
H      27.23500000     31.16400000     14.79900000
H      26.34200000     30.12800000     15.96300000
H      26.46700000     29.91100000     12.96300000
H      24.87990000     31.91780000     13.95910000
H      25.54030000     32.51210000     15.47110000
H      27.07870000     28.73780000     14.15240000
H      25.30590000     28.98870000     13.95420000
