10
pbedef2svp=-192.74983555324 b3lypdef2svp=-192.87775097635 b3lypvdz=-193.02854949291
C      22.12600000     29.06200000     18.18300000
C      20.83500000     28.62900000     18.90400000
O      20.82100000     27.73400000     19.74900000
C      22.49400000     28.05700000     17.10900000
H      21.95700000     30.04300000     17.71400000
H      23.42500000     28.39400000     16.63000000
H      22.66300000     27.08400000     17.59400000
H      22.88480000     29.15540000     18.97390000
H      19.97480000     29.25760000     18.63040000
H      21.73530000     27.92080000     16.32420000
