6
pbedef2svp=-169.57116206729 b3lypdef2svp=-169.67304046997 b3lypvdz=-169.80750588851
N      26.46500000     25.68900000     21.83300000
C      25.74300000     25.58600000     22.92200000
O      25.32500000     24.48900000     23.37800000
H      26.78200000     26.59400000     21.54900000
H      26.71010000     24.89590000     21.27550000
H      25.45900000     26.51300000     23.44170000
