20
pbedef2svp=-327.62116181118 b3lypdef2svp=-327.84456430015 b3lypvdz=-328.09608185341
N      24.24000000     19.23300000     12.24600000
C      22.92400000     18.58300000     12.02500000
C      23.05900000     17.32600000     11.15400000
C      26.54100000     18.73200000      9.25100000
O      26.33300000     18.53600000     10.45700000
C      24.46900000     19.33200000      7.95200000
C      25.82900000     19.82500000      8.49400000
H      25.09100000     18.79700000     11.95400000
H      22.28300000     19.29200000     11.48000000
H      22.06600000     16.87100000     11.02100000
H      23.46700000     17.60900000     10.17200000
H      24.24070000     20.12460000     12.69880000
H      22.41860000     18.33650000     12.97040000
H      23.73100000     16.59430000     11.62630000
H      24.49800000     18.25500000      7.73000000
H      23.65900000     19.53700000      8.66800000
H      25.66900000     20.69300000      9.15000000
H      27.22310000     18.08900000      8.67540000
H      24.34380000     19.92280000      7.03260000
H      26.37750000     20.12180000      7.58790000
