9
pbedef2svp=-208.80743614633 b3lypdef2svp=-208.93806752007 b3lypvdz=-209.10151637052
N      19.81000000     29.37800000     18.57800000
C      22.12600000     29.06200000     18.18300000
C      20.83500000     28.62900000     18.90400000
O      20.82100000     27.73400000     19.74900000
H      19.96200000     30.14700000     17.95600000
H      21.95700000     30.04300000     17.71400000
H      18.88390000     29.21880000     18.92010000
H      22.88480000     29.15540000     18.97390000
H      22.39300000     28.33290000     17.40380000
