19
pbedef2svp=-289.56464201935
C      26.54100000     18.73200000      9.25100000
O      26.33300000     18.53600000     10.45700000
C      27.29900000     17.05500000     13.53300000
C      28.23600000     15.86400000     13.55800000
N      24.24000000     19.23300000     12.24600000
C      22.92400000     18.58300000     12.02500000
H      26.02170000     19.52920000      8.69890000
H      27.22310000     18.08900000      8.67540000
H      27.28300000     17.48700000     12.52200000
H      27.93200000     15.14100000     12.78700000
H      29.26400000     16.20200000     13.35900000
H      28.19300000     15.38400000     14.54700000
H      27.49310000     17.85740000     14.25990000
H      26.28680000     16.72790000     13.81300000
H      25.09100000     18.79700000     11.95400000
H      22.28300000     19.29200000     11.48000000
H      24.24070000     20.12460000     12.69880000
H      22.41860000     18.33650000     12.97040000
H      23.02070000     17.68240000     11.40090000
