18
pbedef2svp=-326.47275573432 b3lypdef2svp=-326.68584840267 b3lypvdz=-326.93693852797
C      40.22600000     33.71600000     17.50900000
C      40.44900000     32.27800000     17.94500000
O      39.93600000     31.33600000     17.31500000
C      38.69300000     34.10600000     17.59500000
N      41.18900000     32.08500000     19.03100000
C      42.90400000     32.41400000     20.55300000
C      41.82200000     33.18800000     19.81300000
H      40.79400000     34.38800000     18.16900000
H      38.14400000     33.41300000     16.94100000
H      43.23600000     32.95400000     21.45200000
H      43.76900000     32.21800000     19.90300000
H      41.10900000     33.65500000     20.50800000
H      42.25100000     33.95800000     19.15500000
H      40.53700000     33.86550000     16.46450000
H      38.53620000     35.12310000     17.20650000
H      38.30300000     33.98190000     18.61600000
H      41.37360000     31.17950000     19.41310000
H      42.38410000     31.48130000     20.81700000
