13
pbedef2svp=-591.81103394682 b3lypdef2svp=-592.0676586289 b3lypvdz=-592.34733735291
C      21.11000000     24.11100000     10.17300000
O      21.84100000     23.19800000      9.68600000
C      25.35300000     24.86000000      5.13400000
S      23.93000000     23.95900000      5.90400000
C      24.44700000     23.98400000      7.62000000
H      21.16330000     24.22050000     11.26620000
H      20.41860000     24.75590000      9.61080000
H      26.29500000     24.33800000      5.35600000
H      25.40300000     25.88800000      5.52200000
H      23.69300000     23.47500000      8.23800000
H      25.41300000     23.46700000      7.71900000
H      24.55300000     25.02600000      7.95600000
H      25.17680000     24.87460000      4.04830000
