12
pbedef2svp=-248.02895883476 b3lypdef2svp=-248.18698081286 b3lypvdz=-248.37954385656
N      20.29100000     24.87500000      9.50700000
C      20.08100000     24.77300000      8.03300000
C      21.18400000     24.26300000     11.69000000
C      21.11000000     24.11100000     10.17300000
O      21.84100000     23.19800000      9.68600000
H      19.77500000     25.56800000     10.01100000
H      20.52200000     23.82600000      7.68800000
H      20.53700000     25.08800000     12.02200000
H      20.61360000     25.59310000      7.52920000
H      19.00400000     24.74610000      7.81060000
H      20.84000000     23.30620000     12.10980000
H      22.21520000     24.44100000     12.02900000
