13
pbedef2svp=-377.18948216915 b3lypdef2svp=-377.41251788694 b3lypvdz=-377.71028592448
C      23.50900000     32.22400000     13.29000000
O      22.54400000     31.94200000     14.03400000
N      24.79000000     32.02100000     13.61800000
C      25.14900000     31.60900000     14.98000000
C      25.69800000     32.87600000     15.66900000
O      26.15800000     33.73000000     14.89400000
N      25.62100000     32.94500000     16.95000000
H      25.50600000     32.15100000     12.93200000
H      24.28500000     31.20800000     15.53000000
H      25.18900000     32.20800000     17.47000000
H      23.29520000     32.61130000     12.28290000
H      25.97710000     30.88500000     14.97070000
H      25.99730000     33.74220000     17.42210000
