18
pbedef2svp=-363.4657061155
C      20.36900000     28.64800000     14.00100000
C      19.59300000     27.46500000     14.02100000
C      21.63700000     28.92300000     10.35300000
O      20.54400000     28.04700000     10.05900000
N      20.29100000     24.87500000      9.50700000
C      21.11000000     24.11100000     10.17300000
O      21.84100000     23.19800000      9.68600000
H      20.22700000     29.39700000     13.23600000
H      18.91100000     27.27600000     13.20500000
H      21.12220000     28.77800000     14.79200000
H      19.65960000     26.73090000     14.83750000
H      22.57800000     28.46500000     10.01500000
H      21.68500000     29.10200000     11.43700000
H      20.74700000     27.53500000      9.28500000
H      21.48070000     29.87660000      9.82740000
H      19.77500000     25.56800000     10.01100000
H      20.15030000     24.80670000      8.51930000
H      21.16330000     24.22050000     11.26620000
