13
pbedef2svp=-323.03891232957 b3lypdef2svp=-323.24149079389 b3lypvdz=-323.49958108227
C      26.54100000     18.73200000      9.25100000
O      26.33300000     18.53600000     10.45700000
N      24.24000000     19.23300000     12.24600000
C      22.92400000     18.58300000     12.02500000
C      22.22900000     18.24400000     13.32500000
O      20.96300000     18.25300000     13.39500000
H      26.02170000     19.52920000      8.69890000
H      27.22310000     18.08900000      8.67540000
H      25.09100000     18.79700000     11.95400000
H      22.28300000     19.29200000     11.48000000
H      24.24070000     20.12460000     12.69880000
H      23.02070000     17.68240000     11.40090000
H      22.86870000     18.02250000     14.19200000
