15
pbedef2svp=-233.16066902023 b3lypdef2svp=-233.32443480772 b3lypvdz=-233.50404068195
C      27.57400000     18.19200000     14.56300000
C      27.29900000     17.05500000     13.53300000
C      31.39800000     19.06400000     14.28600000
C      31.59300000     20.55300000     14.65500000
O      32.15900000     21.31100000     13.86100000
H      28.56000000     18.63600000     14.36100000
H      27.28300000     17.48700000     12.52200000
H      27.52640000     17.81830000     15.59650000
H      26.79760000     18.96560000     14.46990000
H      26.28680000     16.72790000     13.81300000
H      27.97910000     16.19060000     13.55110000
H      30.40500000     18.73500000     14.62700000
H      31.48330000     18.96650000     13.19370000
H      32.16550000     18.45290000     14.78340000
H      31.19710000     20.80870000     15.64890000
