15
pbedef2svp=-270.99908654252 b3lypdef2svp=-271.18408058432 b3lypvdz=-271.39126345234
C      26.13600000     35.34600000      6.64000000
C      23.81200000     34.03100000      5.67700000
C      25.81000000     35.39200000      5.26700000
C      24.62000000     34.77800000      4.85300000
C      25.69500000     34.49800000      8.94600000
C      25.28800000     34.60900000      7.49900000
C      24.14700000     33.96600000      7.03800000
H      27.00600000     35.85800000      7.02300000
H      22.94800000     33.51100000      5.29000000
H      26.45800000     35.88500000      4.55700000
H      24.31900000     34.89900000      3.82300000
H      24.80600000     34.23900000      9.53900000
H      26.08400000     35.47300000      9.27400000
H      23.51900000     33.41800000      7.72500000
H      26.46770000     33.73610000      9.12610000
