10
pbedef2svp=-134.87209239398 b3lypdef2svp=-134.96937924155 b3lypvdz=-135.06985641161
C      29.96300000     33.31700000     12.81400000
N      28.26000000     33.94300000     11.09600000
C      28.60500000     33.96500000     12.50300000
H      30.75600000     33.85900000     12.27900000
H      28.87600000     34.37900000     10.44000000
H      27.82500000     33.46000000     13.09200000
H      30.14340000     33.37300000     13.89770000
H      29.95870000     32.26700000     12.48600000
H      27.42560000     33.50580000     10.76040000
H      28.62840000     35.02800000     12.78510000
