14
pbedef2svp=-361.14003669334 b3lypdef2svp=-361.36137453481 b3lypvdz=-361.64688527877
C      31.42200000     43.94000000     17.55300000
C      30.75500000     44.35100000     16.27700000
O      31.20700000     45.26800000     15.56600000
N      29.72100000     43.67300000     15.88500000
C      28.97800000     43.96000000     14.67800000
C      29.60400000     43.50700000     13.39300000
O      29.21900000     43.98100000     12.30100000
H      31.15100000     44.66200000     18.33700000
H      29.42000000     42.90600000     16.45100000
H      27.99600000     43.47100000     14.76400000
H      28.84100000     45.05000000     14.61900000
H      31.10650000     42.93780000     17.87880000
H      32.51930000     43.92450000     17.47690000
H      30.41030000     42.76370000     13.47880000
