17
pbedef2svp=-342.47644225119 b3lypdef2svp=-342.69384733678 b3lypvdz=-342.95829423543
C      38.81700000     28.02000000     19.88900000
C      39.09000000     26.62900000     19.32500000
N      41.18900000     32.08500000     19.03100000
C      41.46100000     30.75100000     19.59400000
C      40.16800000     30.02600000     19.91800000
O      39.26400000     30.66200000     20.52100000
N      40.05900000     28.75800000     19.60700000
H      38.00200000     28.46900000     19.30300000
H      39.53200000     25.97200000     20.08900000
H      38.16800000     26.17200000     18.93700000
H      42.11200000     30.14800000     18.94400000
H      38.52760000     28.04050000     20.95010000
H      39.80490000     26.82720000     18.51280000
H      40.63190000     32.23030000     18.21340000
H      41.61300000     32.82380000     19.55480000
H      41.97880000     31.02680000     20.52450000
H      40.71650000     28.18600000     19.11660000
