20
pbedef2svp=-273.56090961317
C      27.33100000     29.31700000     20.36400000
O      27.10100000     28.34600000     21.09700000
C      22.12600000     29.06200000     18.18300000
C      22.49400000     28.05700000     17.10900000
C      24.57700000     25.19000000     19.07900000
C      25.93100000     25.84400000     18.95900000
H      28.36380000     29.50180000     20.03350000
H      26.59060000     30.07400000     20.06620000
H      21.95700000     30.04300000     17.71400000
H      23.42500000     28.39400000     16.63000000
H      22.66300000     27.08400000     17.59400000
H      22.88480000     29.15540000     18.97390000
H      21.20430000     28.75290000     18.69770000
H      21.73530000     27.92080000     16.32420000
H      23.81400000     25.84000000     18.62600000
H      24.59000000     24.22100000     18.55800000
H      24.33900000     25.03100000     20.14100000
H      25.90600000     26.81600000     19.47400000
H      26.73110000     25.23090000     19.39940000
H      26.12640000     26.01570000     17.89020000
