9
pbedef2svp=-208.81077000688 b3lypdef2svp=-208.94141536488 b3lypvdz=-209.10491106061
C      26.54100000     18.73200000      9.25100000
O      26.33300000     18.53600000     10.45700000
N      27.36100000     17.95900000      8.55900000
C      25.82900000     19.82500000      8.49400000
H      27.51100000     18.13900000      7.58700000
H      25.66900000     20.69300000      9.15000000
H      27.83170000     17.19550000      9.00120000
H      26.37750000     20.12180000      7.58790000
H      24.86060000     19.47400000      8.10810000
