23
pbedef2svp=-312.80543406053
C      36.73100000     30.57000000     12.64500000
C      35.70800000     30.77600000     13.80600000
C      38.69300000     34.10600000     17.59500000
C      38.14600000     33.93200000     19.02700000
C      36.01200000     30.86000000     19.22100000
C      36.08300000     30.19400000     17.87500000
O      35.04800000     29.70200000     17.39300000
H      36.42300000     31.20600000     11.80200000
H      35.89000000     29.98800000     14.55100000
H      36.79070000     29.52500000     12.30690000
H      37.74640000     30.86450000     12.94880000
H      34.66770000     30.67340000     13.46370000
H      35.82630000     31.74690000     14.30930000
H      38.14400000     33.41300000     16.94100000
H      37.08200000     34.21100000     19.05000000
H      38.25700000     32.88200000     19.33700000
H      38.70900000     34.57900000     19.71600000
H      39.75750000     33.83520000     17.53530000
H      38.53620000     35.12310000     17.20650000
H      35.81700000     31.93400000     19.08500000
H      36.97000000     30.72500000     19.74400000
H      35.20410000     30.41700000     19.82190000
H      37.04120000     30.13710000     17.33770000
