15
pbedef2svp=-233.15858673288
C      28.11300000     39.04900000     10.01500000
C      27.58800000     37.63500000      9.71500000
C      28.60500000     33.96500000     12.50300000
C      28.63800000     35.46100000     12.90000000
O      29.52200000     36.10300000     12.32000000
H      28.15100000     39.62800000      9.08100000
H      26.58500000     37.70300000      9.26900000
H      28.26800000     37.13300000      9.01200000
H      27.53600000     37.05800000     10.65000000
H      29.11730000     39.02860000     10.46340000
H      27.48210000     39.55870000     10.75800000
H      27.82500000     33.46000000     13.09200000
H      28.34310000     33.94830000     11.43480000
H      29.57720000     33.50110000     12.72570000
H      27.88010000     35.80790000     13.61780000
