8
pbedef2svp=-79.63945989724 b3lypdef2svp=-79.70464613062 b3lypvdz=-79.76232150839
C      31.74400000     38.87900000     16.29900000
C      32.26000000     37.96900000     15.17100000
H      32.36600000     38.76400000     17.19900000
H      33.32000000     38.19100000     14.97600000
H      32.15500000     36.91600000     15.47300000
H      31.67400000     38.14900000     14.25800000
H      30.68610000     38.71460000     16.55180000
H      31.73870000     39.91890000     15.94050000
