16
pbedef2svp=-271.20207473038 b3lypdef2svp=-271.38414651482 b3lypvdz=-271.59366948545
C      23.37600000     25.64500000     11.40900000
C      21.18400000     24.26300000     11.69000000
C      21.11000000     24.11100000     10.17300000
O      21.84100000     23.19800000      9.68600000
C      22.65000000     24.51600000     12.17200000
C      22.66200000     24.81900000     13.69900000
H      24.39600000     25.75900000     11.80600000
H      23.42500000     25.39200000     10.34000000
H      22.82500000     26.58800000     11.53800000
H      20.53700000     25.08800000     12.02200000
H      23.21600000     23.58600000     12.01300000
H      22.10700000     25.74900000     13.89000000
H      22.18400000     23.98900000     14.23900000
H      20.84000000     23.30620000     12.10980000
H      20.41860000     24.75590000      9.61080000
H      23.69790000     24.93390000     14.05070000
