14
pbedef2svp=-303.26182651571 b3lypdef2svp=-303.45146582139 b3lypvdz=-303.68662119401
N      27.75100000     35.86700000     13.74000000
C      27.69100000     37.31500000     14.14300000
C      28.46900000     37.47500000     15.42000000
O      28.21300000     36.75300000     16.41100000
N      29.42600000     38.43000000     15.44600000
C      30.22500000     38.64300000     16.66200000
H      27.09800000     35.21600000     14.12700000
H      28.13900000     37.93800000     13.35500000
H      29.59100000     38.99300000     14.63600000
H      30.16200000     37.75100000     17.30200000
H      28.44000000     35.55160000     13.08750000
H      26.63020000     37.58090000     14.26120000
H      29.82170000     39.50280000     17.21700000
H      31.28290000     38.80740000     16.40920000
