23
pbedef2svp=-312.79754425408
C      40.99600000     29.39900000     14.86500000
C      42.44500000     29.84800000     15.18200000
C      40.08200000     26.90400000     18.19800000
C      41.03500000     27.90900000     18.87900000
C      38.79400000     25.76100000     13.88000000
C      38.72800000     26.59100000     12.61100000
O      39.70400000     27.34600000     12.27700000
H      40.46600000     29.18400000     15.80400000
H      41.02200000     28.49200000     14.24300000
H      43.02100000     29.92200000     14.24800000
H      42.42600000     30.82900000     15.68000000
H      40.47110000     30.19970000     14.32350000
H      42.91390000     29.10660000     15.84570000
H      40.61100000     25.98900000     17.89400000
H      39.58500000     27.34800000     17.32300000
H      41.73000000     27.40700000     19.56800000
H      41.60700000     28.49000000     18.14100000
H      39.36710000     26.70580000     19.01020000
H      40.31170000     28.53820000     19.41850000
H      39.53500000     26.22600000     14.54600000
H      37.82360000     25.74750000     14.39780000
H      39.14480000     24.74290000     13.65570000
H      37.81870000     26.55110000     11.99320000
