15
pbedef2svp=-287.16224776137
C      24.27200000     21.54400000     17.64400000
C      25.05200000     21.28500000     18.77600000
N      27.51000000     17.68900000     15.95400000
C      27.57400000     18.19200000     14.56300000
C      26.48200000     19.28000000     14.43200000
O      25.60900000     19.38800000     15.28700000
H      24.69800000     21.42900000     16.65800000
H      26.07000000     20.94100000     18.66600000
H      23.22570000     21.86490000     17.75520000
H      24.62430000     21.43290000     19.77860000
H      26.75900000     17.07400000     16.19600000
H      28.56000000     18.63600000     14.36100000
H      28.17060000     17.92570000     16.66650000
H      27.37990000     17.38960000     13.83610000
H      26.56800000     19.93400000     13.55170000
