12
pbedef2svp=-248.01918591599 b3lypdef2svp=-248.17692536595 b3lypvdz=-248.36939272504
N      20.29100000     24.87500000      9.50700000
C      20.08100000     24.77300000      8.03300000
C      18.59900000     24.73600000      7.72700000
C      21.11000000     24.11100000     10.17300000
O      21.84100000     23.19800000      9.68600000
H      19.77500000     25.56800000     10.01100000
H      20.52200000     23.82600000      7.68800000
H      18.12100000     25.48200000      8.37800000
H      18.48300000     25.03900000      6.67600000
H      20.61360000     25.59310000      7.52920000
H      18.03730000     23.79840000      7.85160000
H      21.16330000     24.22050000     11.26620000
