17
pbedef2svp=-342.48465172628 b3lypdef2svp=-342.70336428284 b3lypvdz=-342.96709631477
N      28.26000000     33.94300000     11.09600000
C      28.60500000     33.96500000     12.50300000
C      28.63800000     35.46100000     12.90000000
O      29.52200000     36.10300000     12.32000000
N      27.75100000     35.86700000     13.74000000
C      27.69100000     37.31500000     14.14300000
C      26.21900000     37.68400000     14.30700000
H      28.87600000     34.37900000     10.44000000
H      27.82500000     33.46000000     13.09200000
H      27.09800000     35.21600000     14.12700000
H      28.13900000     37.93800000     13.35500000
H      25.70800000     37.42000000     13.36900000
H      25.81700000     37.07300000     15.12800000
H      27.42560000     33.50580000     10.76040000
H      29.57720000     33.50110000     12.72570000
H      28.26010000     37.43200000     15.07710000
H      25.97730000     38.73380000     14.52920000
