7
pbedef2svp=-153.52079263042 b3lypdef2svp=-153.62083603143 b3lypvdz=-153.74262514964
O      29.80900000     29.39500000      5.54500000
C      31.67700000     30.27500000      6.63900000
C      31.02200000     29.28800000      5.66500000
H      32.72700000     30.46400000      6.36900000
H      31.07410000     31.19490000      6.65950000
H      31.59430000     29.85120000      7.65070000
H      31.70340000     28.55290000      5.21190000
