21
pbedef2svp=-344.8073697578
N      21.84600000     19.95400000     15.90500000
C      21.07900000     21.14900000     16.25100000
N      20.71700000     22.96400000     12.26000000
C      21.18400000     24.26300000     11.69000000
C      25.59400000     21.10900000     13.07200000
C      24.24100000     20.43600000     12.85700000
O      23.26400000     20.95100000     13.32900000
H      22.72300000     20.07900000     15.44100000
H      20.48400000     20.94600000     17.15300000
H      21.54970000     19.01970000     16.10310000
H      20.39740000     21.46980000     15.44940000
H      21.80210000     21.94330000     16.48820000
H      21.38500000     22.24600000     12.45600000
H      20.53700000     25.08800000     12.02200000
H      19.74930000     22.79780000     12.44970000
H      21.13070000     24.15350000     10.59680000
H      22.21520000     24.44100000     12.02900000
H      25.51600000     21.80500000     13.92000000
H      26.33400000     20.32790000     13.30050000
H      25.94320000     21.66420000     12.18890000
H      24.24020000     19.45520000     12.35890000
