19
pbedef2svp=-347.44669210505
C      34.50900000     26.07700000     19.36000000
C      34.34300000     26.44500000     17.89800000
C      36.08300000     30.19400000     17.87500000
O      35.04800000     29.70200000     17.39300000
C      38.81700000     28.02000000     19.88900000
C      38.42100000     28.04800000     21.34100000
O      37.21300000     28.03600000     21.70400000
H      34.78800000     25.01600000     19.43700000
H      35.30300000     26.69700000     19.80200000
H      34.05700000     27.50400000     17.81100000
H      33.56400000     25.81600000     17.44200000
H      33.57070000     26.24550000     19.90870000
H      35.30370000     26.27560000     17.38970000
H      36.03110000     30.68130000     18.85980000
H      37.04120000     30.13710000     17.33770000
H      38.00200000     28.46900000     19.30300000
H      39.74510000     28.57150000     19.67830000
H      39.01380000     27.01710000     19.48230000
H      39.22070000     28.08320000     22.09540000
