16
pbedef2svp=-159.2789299066 b3lypdef2svp=-159.40890324047 b3lypvdz=-159.52414308024
C      17.86400000     27.97700000     18.34600000
C      18.44300000     29.14300000     19.08300000
C      19.63400000     23.88500000     21.53100000
C      18.79100000     24.22100000     20.31300000
H      16.84300000     27.78400000     18.70800000
H      17.83500000     28.20100000     17.27000000
H      18.48800000     27.08800000     18.51900000
H      17.83100000     30.03000000     18.86300000
H      19.46170000     29.31810000     18.70670000
H      18.45020000     28.99700000     20.17320000
H      20.63700000     23.57900000     21.19900000
H      19.16000000     23.05700000     22.07800000
H      19.25900000     25.03600000     19.74100000
H      18.68500000     23.33500000     19.66900000
H      19.72700000     24.75130000     22.20250000
H      17.80630000     24.53730000     20.68760000
