19
pbedef2svp=-347.44819876443
C      40.16800000     30.02600000     19.91800000
O      39.26400000     30.66200000     20.52100000
C      38.52800000     32.85400000     23.18200000
C      39.91900000     32.85400000     23.84000000
C      36.01200000     30.86000000     19.22100000
C      36.08300000     30.19400000     17.87500000
O      35.04800000     29.70200000     17.39300000
H      41.10530000     30.55160000     19.68310000
H      40.07650000     28.96140000     19.65690000
H      38.63400000     32.78100000     22.09000000
H      37.99600000     33.78200000     23.43800000
H      39.79500000     32.89900000     24.93200000
H      40.44000000     31.92400000     23.56800000
H      37.96540000     31.98740000     23.55940000
H      40.52860000     33.71070000     23.51670000
H      35.81700000     31.93400000     19.08500000
H      36.97000000     30.72500000     19.74400000
H      35.20410000     30.41700000     19.82190000
H      37.04120000     30.13710000     17.33770000
