6
pbedef2svp=-169.57515883169 b3lypdef2svp=-169.67738317555 b3lypvdz=-169.81159082828
N      31.11300000     20.86300000     15.86000000
C      31.59300000     20.55300000     14.65500000
O      32.15900000     21.31100000     13.86100000
H      30.62600000     20.16900000     16.39000000
H      31.23290000     21.77950000     16.24150000
H      31.45430000     19.49380000     14.39250000
