14
pbedef2svp=-361.13640294196 b3lypdef2svp=-361.3571795258 b3lypvdz=-361.64298307778
C      26.26600000     25.41300000      2.84200000
C      26.91300000     26.63900000      3.53100000
O      27.88600000     26.46300000      4.26300000
N      26.33500000     27.77000000      3.25800000
C      26.85000000     29.02100000      3.89800000
C      26.10000000     29.25300000      5.20200000
O      24.86500000     29.02400000      5.33000000
H      25.88000000     25.74300000      1.86700000
H      25.55800000     27.80400000      2.63000000
H      27.91400000     28.87800000      4.13600000
H      27.06770000     24.67930000      2.67180000
H      25.42290000     25.02360000      3.43160000
H      26.76460000     29.84380000      3.17300000
H      26.72220000     29.58780000      6.04510000
