16
pbedef2svp=-325.28375645048 b3lypdef2svp=-325.48891532508 b3lypvdz=-325.74051277124
C      38.81700000     28.02000000     19.88900000
C      39.09000000     26.62900000     19.32500000
C      40.08200000     26.90400000     18.19800000
C      41.03500000     27.90900000     18.87900000
C      40.16800000     30.02600000     19.91800000
O      39.26400000     30.66200000     20.52100000
N      40.05900000     28.75800000     19.60700000
H      38.00200000     28.46900000     19.30300000
H      39.53200000     25.97200000     20.08900000
H      38.16800000     26.17200000     18.93700000
H      40.61100000     25.98900000     17.89400000
H      39.58500000     27.34800000     17.32300000
H      41.73000000     27.40700000     19.56800000
H      41.60700000     28.49000000     18.14100000
H      38.52760000     28.04050000     20.95010000
H      41.10530000     30.55160000     19.68310000
