20
pbedef2svp=-310.60463236716 b3lypdef2svp=-310.82488970763 b3lypvdz=-311.06521007371
C      24.46900000     19.33200000      7.95200000
C      25.82900000     19.82500000      8.49400000
C      27.29900000     17.05500000     13.53300000
O      25.92500000     16.61100000     13.91300000
C      23.05900000     17.32600000     11.15400000
O      23.91400000     16.39500000     11.75500000
H      24.49800000     18.25500000      7.73000000
H      23.65900000     19.53700000      8.66800000
H      25.66900000     20.69300000      9.15000000
H      24.34380000     19.92280000      7.03260000
H      26.37750000     20.12180000      7.58790000
H      26.34830000     19.02780000      9.04610000
H      27.28300000     17.48700000     12.52200000
H      25.65000000     15.90600000     13.33900000
H      27.49310000     17.85740000     14.25990000
H      27.97910000     16.19060000     13.55110000
H      22.06600000     16.87100000     11.02100000
H      23.46700000     17.60900000     10.17200000
H      23.98400000     15.62600000     11.20200000
H      22.96230000     18.22670000     11.77810000
