19
pbedef2svp=-380.69973160559
C      27.29900000     17.05500000     13.53300000
O      25.92500000     16.61100000     13.91300000
N      21.84600000     19.95400000     15.90500000
C      21.07900000     21.14900000     16.25100000
N      24.24000000     19.23300000     12.24600000
C      24.24100000     20.43600000     12.85700000
O      23.26400000     20.95100000     13.32900000
H      27.28300000     17.48700000     12.52200000
H      25.65000000     15.90600000     13.33900000
H      27.49310000     17.85740000     14.25990000
H      27.97910000     16.19060000     13.55110000
H      22.72300000     20.07900000     15.44100000
H      20.48400000     20.94600000     17.15300000
H      21.54970000     19.01970000     16.10310000
H      20.39740000     21.46980000     15.44940000
H      21.80210000     21.94330000     16.48820000
H      25.09100000     18.79700000     11.95400000
H      23.35340000     18.79510000     12.09710000
H      25.21610000     20.92100000     13.01190000
