22
pbedef2svp=-328.80706967314
N      21.84600000     19.95400000     15.90500000
C      21.07900000     21.14900000     16.25100000
C      24.12300000     24.98100000     14.19500000
C      22.66200000     24.81900000     13.69900000
C      25.59400000     21.10900000     13.07200000
C      24.24100000     20.43600000     12.85700000
O      23.26400000     20.95100000     13.32900000
H      22.72300000     20.07900000     15.44100000
H      20.48400000     20.94600000     17.15300000
H      21.54970000     19.01970000     16.10310000
H      20.39740000     21.46980000     15.44940000
H      21.80210000     21.94330000     16.48820000
H      24.12300000     25.19500000     15.27400000
H      24.68000000     24.05100000     14.00600000
H      24.60300000     25.81200000     13.65700000
H      22.10700000     25.74900000     13.89000000
H      22.18400000     23.98900000     14.23900000
H      22.65350000     24.60490000     12.62010000
H      25.51600000     21.80500000     13.92000000
H      26.33400000     20.32790000     13.30050000
H      25.94320000     21.66420000     12.18890000
H      24.24020000     19.45520000     12.35890000
