13
pbedef2svp=-323.03561816422
C      36.67100000     34.29600000     27.08900000
O      37.30500000     33.23300000     26.79500000
C      36.33400000     31.74200000     23.08700000
O      35.57400000     32.61800000     23.48300000
N      38.41900000     30.37300000     23.34100000
C      37.73800000     31.63700000     23.71200000
H      35.58340000     34.20810000     26.95000000
H      37.11890000     35.23360000     27.45010000
H      38.91700000     30.30600000     22.47600000
H      37.65300000     31.71100000     24.80600000
H      36.05440000     31.00370000     22.32100000
H      38.37820000     29.58820000     23.95940000
H      38.30060000     32.50360000     23.33460000
