17
pbedef2svp=-342.47174443304 b3lypdef2svp=-342.68878455821 b3lypvdz=-342.95320993906
N      31.24400000     34.98600000      7.19700000
C      30.50500000     33.88400000      6.51200000
C      31.40900000     32.68000000      6.44600000
O      32.61900000     32.81200000      6.12500000
N      30.88400000     31.48500000      6.66600000
C      31.67700000     30.27500000      6.63900000
C      31.56200000     29.68600000      8.04500000
H      31.93100000     35.53000000      6.71500000
H      29.59500000     33.63500000      7.07700000
H      29.90500000     31.41600000      6.85800000
H      32.72700000     30.46400000      6.36900000
H      30.84400000     30.34400000      8.55700000
H      31.10600000     28.69700000      7.88900000
H      31.02410000     35.15720000      8.15740000
H      30.21620000     34.23900000      5.51170000
H      31.20720000     29.56700000      5.94040000
H      32.34920000     29.50780000      8.79240000
