25
pbedef2svp=-636.81062270676
C      26.34400000     29.05000000      8.64500000
C      27.81000000     28.74800000      8.99900000
C      29.90300000     24.59000000      7.66500000
C      28.47600000     25.13500000      7.70500000
C      25.35300000     24.86000000      5.13400000
S      23.93000000     23.95900000      5.90400000
C      24.44700000     23.98400000      7.62000000
H      25.87900000     29.50700000      9.53100000
H      28.22100000     28.06200000      8.24300000
H      28.37700000     29.69100000      8.98500000
H      26.26570000     29.77390000      7.82050000
H      25.74960000     28.15870000      8.39550000
H      27.91980000     28.28560000      9.99100000
H      29.89100000     23.63600000      8.21200000
H      28.20500000     25.37800000      8.74300000
H      28.41300000     26.04300000      7.08700000
H      27.78300000     24.37600000      7.31300000
H      30.17450000     24.34680000      6.62710000
H      30.60400000     25.25220000      8.19420000
H      26.29500000     24.33800000      5.35600000
H      25.40300000     25.88800000      5.52200000
H      23.69300000     23.47500000      8.23800000
H      25.41300000     23.46700000      7.71900000
H      24.55300000     25.02600000      7.95600000
H      25.17680000     24.87460000      4.04830000
