18
pbedef2svp=-272.3307424141
C      20.83500000     28.62900000     18.90400000
O      20.82100000     27.73400000     19.74900000
C      19.63400000     23.88500000     21.53100000
C      18.79100000     24.22100000     20.31300000
C      22.94500000     21.95100000     17.78500000
C      22.43700000     22.15700000     19.06500000
H      21.75670000     28.93810000     18.38930000
H      19.97480000     29.25760000     18.63040000
H      20.63700000     23.57900000     21.19900000
H      19.16000000     23.05700000     22.07800000
H      19.25900000     25.03600000     19.74100000
H      18.68500000     23.33500000     19.66900000
H      19.72700000     24.75130000     22.20250000
H      17.80630000     24.53730000     20.68760000
H      21.42600000     22.51800000     19.18200000
H      22.31860000     22.17170000     16.90810000
H      23.99130000     21.63010000     17.67380000
H      23.04570000     21.95860000     19.95950000
