12
pbedef2svp=-248.01189516859 b3lypdef2svp=-248.16947479686 b3lypvdz=-248.36236111816
C      40.08200000     26.90400000     18.19800000
C      41.03500000     27.90900000     18.87900000
C      40.16800000     30.02600000     19.91800000
O      39.26400000     30.66200000     20.52100000
N      40.05900000     28.75800000     19.60700000
H      40.61100000     25.98900000     17.89400000
H      39.58500000     27.34800000     17.32300000
H      41.73000000     27.40700000     19.56800000
H      41.60700000     28.49000000     18.14100000
H      39.36710000     26.70580000     19.01020000
H      41.10530000     30.55160000     19.68310000
H      39.21520000     28.25660000     19.79860000
