14
pbedef2svp=-303.25438415189 b3lypdef2svp=-303.44411205607 b3lypvdz=-303.67944516805
N      26.55900000     20.22000000      7.28800000
C      25.82900000     19.82500000      8.49400000
C      26.54100000     18.73200000      9.25100000
O      26.33300000     18.53600000     10.45700000
C      25.71400000     20.10800000      6.07300000
N      27.36100000     17.95900000      8.55900000
H      25.66900000     20.69300000      9.15000000
H      25.90100000     19.16700000      5.53500000
H      25.87000000     20.95700000      5.39100000
H      27.51100000     18.13900000      7.58700000
H      27.51430000     20.51490000      7.30920000
H      24.86060000     19.47400000      8.10810000
H      24.70950000     20.12650000      6.52090000
H      27.83170000     17.19550000      9.00120000
