14
pbedef2svp=-361.14183416451 b3lypdef2svp=-361.36278950613 b3lypvdz=-361.64812282357
C      21.65600000     26.84700000      5.24000000
C      21.12700000     28.24000000      5.57400000
O      19.95800000     28.46500000      5.84200000
N      22.09900000     29.16300000      5.60500000
C      21.90700000     30.56300000      5.88100000
C      21.46600000     30.95300000      7.26100000
O      21.06600000     32.11200000      7.53300000
H      22.70900000     26.81500000      5.55600000
H      23.03200000     28.85400000      5.42200000
H      22.89500000     31.02900000      5.75500000
H      21.09940000     26.09800000      5.82240000
H      21.63790000     26.69890000      4.15020000
H      21.28200000     31.02960000      5.10540000
H      21.63880000     30.18940000      8.03370000
