19
pbedef2svp=-347.43043663889
C      38.42100000     28.04800000     21.34100000
O      37.21300000     28.03600000     21.70400000
C      36.08300000     30.19400000     17.87500000
O      35.04800000     29.70200000     17.39300000
C      34.50900000     26.07700000     19.36000000
C      33.20600000     26.31100000     20.12200000
C      34.34300000     26.44500000     17.89800000
H      38.71040000     28.02750000     20.27990000
H      39.22070000     28.08320000     22.09540000
H      36.03110000     30.68130000     18.85980000
H      37.04120000     30.13710000     17.33770000
H      34.78800000     25.01600000     19.43700000
H      35.30300000     26.69700000     19.80200000
H      32.92400000     27.37300000     20.07200000
H      32.40100000     25.69700000     19.69200000
H      34.05700000     27.50400000     17.81100000
H      33.56400000     25.81600000     17.44200000
H      33.38860000     26.01700000     21.16610000
H      35.30370000     26.27560000     17.38970000
