7
pbedef2svp=-95.63742246705 b3lypdef2svp=-95.70694194241 b3lypvdz=-95.77840945755
N      20.71700000     22.96400000     12.26000000
C      21.18400000     24.26300000     11.69000000
H      21.38500000     22.24600000     12.45600000
H      20.53700000     25.08800000     12.02200000
H      19.74930000     22.79780000     12.44970000
H      21.13070000     24.15350000     10.59680000
H      22.21520000     24.44100000     12.02900000
