15
pbedef2svp=-287.25561627443 b3lypdef2svp=-287.44239925975 b3lypvdz=-287.66352503502
C      21.46000000     18.73700000     16.16300000
O      20.49700000     18.50600000     16.90000000
C      23.46100000     17.33100000     16.74100000
N      21.84600000     19.95400000     15.90500000
C      21.07900000     21.14900000     16.25100000
C      22.41800000     17.63800000     15.69300000
H      24.21600000     18.13000000     16.70200000
H      22.96200000     17.34600000     17.72100000
H      22.72300000     20.07900000     15.44100000
H      20.48400000     20.94600000     17.15300000
H      21.81600000     16.72700000     15.56300000
H      23.98920000     16.37030000     16.65190000
H      20.39740000     21.46980000     15.44940000
H      21.80210000     21.94330000     16.48820000
H      22.84630000     17.88950000     14.71150000
