10
pbedef2svp=-192.75003278843 b3lypdef2svp=-192.87750705248 b3lypvdz=-193.02860565944
C      26.17900000     34.12700000     17.65000000
C      27.47500000     33.65100000     18.30400000
O      27.50700000     32.58700000     18.95800000
C      25.21400000     34.56500000     18.78000000
H      26.36900000     34.95900000     16.95600000
H      24.95100000     33.70000000     19.40600000
H      25.69000000     35.33700000     19.40200000
H      25.76500000     33.25010000     17.13070000
H      28.34830000     34.31300000     18.20840000
H      24.31050000     34.97140000     18.30190000
