12
pbedef2svp=-248.03193652021 b3lypdef2svp=-248.19009361441 b3lypvdz=-248.38264362689
C      29.27900000     23.22700000      5.64100000
O      28.47800000     23.52200000      4.72500000
N      29.38000000     22.05700000      6.23200000
C      28.46800000     20.94000000      5.98000000
C      30.28800000     24.24500000      6.19300000
H      30.12100000     21.92300000      6.89000000
H      27.69800000     21.22000000      5.24600000
H      31.28700000     23.78400000      6.19600000
H      27.99890000     20.70070000      6.94570000
H      29.00550000     20.04320000      5.63800000
H      30.30460000     25.16000000      5.58270000
H      30.01650000     24.48820000      7.23090000
