14
pbedef2svp=-195.12708655407 b3lypdef2svp=-195.26981066732 b3lypvdz=-195.41886016789
C      31.74400000     38.87900000     16.29900000
O      31.73700000     40.25700000     15.82400000
C      32.67200000     41.71700000     12.50500000
C      33.28000000     41.08600000     11.22700000
H      32.36600000     38.76400000     17.19900000
H      32.61800000     40.51000000     15.57300000
H      30.68610000     38.71460000     16.55180000
H      32.11290000     38.22830000     15.49250000
H      33.20000000     42.65600000     12.72600000
H      32.80100000     41.01800000     13.34500000
H      32.75600000     40.14700000     10.99400000
H      33.17300000     41.78500000     10.38400000
H      31.60030000     41.93050000     12.37910000
H      34.34620000     40.87950000     11.40180000
