13
pbedef2svp=-323.10338140101
C      23.04600000     27.08700000     22.91300000
O      23.38300000     27.62700000     21.87000000
N      23.14100000     29.18700000     19.24100000
C      25.03400000     30.17000000     20.40100000
C      24.10100000     30.14900000     19.19600000
O      24.19600000     30.94800000     18.28700000
H      21.97730000     26.87910000     23.07020000
H      23.74860000     26.78370000     23.70320000
H      23.12400000     28.54900000     20.01100000
H      24.85900000     29.26400000     21.00000000
H      22.45120000     29.10210000     18.52200000
H      26.09140000     30.21680000     20.10160000
H      24.76010000     31.04090000     21.01460000
