18
pbedef2svp=-326.48049162224 b3lypdef2svp=-326.695390702 b3lypvdz=-326.94588784971
C      28.46800000     20.94000000      5.98000000
C      27.81900000     20.60900000      7.31600000
O      28.44900000     20.67400000      8.36000000
C      29.21300000     19.69700000      5.50600000
N      26.55900000     20.22000000      7.28800000
C      25.82900000     19.82500000      8.49400000
C      24.46900000     19.33200000      7.95200000
H      27.69800000     21.22000000      5.24600000
H      30.07700000     19.54500000      6.16900000
H      28.53000000     18.83800000      5.59000000
H      25.66900000     20.69300000      9.15000000
H      24.49800000     18.25500000      7.73000000
H      23.65900000     19.53700000      8.66800000
H      29.15330000     21.77930000      6.16940000
H      29.58180000     19.73850000      4.47050000
H      25.98970000     20.14450000      6.46940000
H      26.34830000     19.02780000      9.04610000
H      24.34380000     19.92280000      7.03260000
