17
pbedef2svp=-197.28036442666 b3lypdef2svp=-197.43326328334 b3lypvdz=-197.57946354019
C      24.57700000     25.19000000     19.07900000
C      25.93100000     25.84400000     18.95900000
C      21.44700000     27.86900000     16.02600000
C      20.63800000     26.73500000     16.05300000
C      22.49400000     28.05700000     17.10900000
H      23.81400000     25.84000000     18.62600000
H      24.59000000     24.22100000     18.55800000
H      24.33900000     25.03100000     20.14100000
H      25.90600000     26.81600000     19.47400000
H      26.73110000     25.23090000     19.39940000
H      26.12640000     26.01570000     17.89020000
H      20.75100000     26.00800000     16.84400000
H      23.42500000     28.39400000     16.63000000
H      22.66300000     27.08400000     17.59400000
H      21.35090000     28.61290000     15.22140000
H      19.88410000     26.58120000     15.26690000
H      22.22700000     28.78610000     17.88820000
