9
pbedef2svp=-208.80888095362 b3lypdef2svp=-208.93968834697 b3lypvdz=-209.10292217221
C      30.45900000     40.66600000     12.13000000
O      30.25300000     39.99100000     13.13300000
N      30.16300000     40.33800000     10.88600000
C      31.19100000     42.01200000     12.33100000
H      30.35300000     40.96100000     10.12800000
H      31.04300000     42.64100000     11.44100000
H      29.74210000     39.44470000     10.72810000
H      30.71680000     42.47330000     13.20980000
H      32.26270000     41.79850000     12.45690000
