16
pbedef2svp=-362.32427593487 b3lypdef2svp=-362.55485093478 b3lypvdz=-362.83920061219
N      25.62100000     32.94500000     16.95000000
C      26.17900000     34.12700000     17.65000000
C      25.69800000     32.87600000     15.66900000
O      26.15800000     33.73000000     14.89400000
C      25.03400000     30.17000000     20.40100000
C      24.10100000     30.14900000     19.19600000
O      24.19600000     30.94800000     18.28700000
H      25.18900000     32.20800000     17.47000000
H      26.36900000     34.95900000     16.95600000
H      27.11220000     33.78430000     18.12090000
H      25.49380000     34.43800000     18.45240000
H      25.30670000     31.97290000     15.17790000
H      24.85900000     29.26400000     21.00000000
H      26.09140000     30.21680000     20.10160000
H      24.76010000     31.04090000     21.01460000
H      23.32440000     29.37080000     19.23240000
