10
pbedef2svp=-192.68896740939
C      19.67700000     26.53900000     15.05100000
C      19.59300000     27.46500000     14.02100000
C      20.14200000     21.59000000     15.14900000
O      19.49900000     22.64500000     15.32100000
H      19.01600000     25.68500000     15.08000000
H      18.91100000     27.27600000     13.20500000
H      20.43090000     26.69280000     15.83710000
H      20.19630000     28.38470000     14.00550000
H      20.82360000     21.26920000     15.95060000
H      20.01740000     20.99970000     14.22920000
