15
pbedef2svp=-233.15736542066
C      30.09100000     34.39300000      5.07800000
C      30.50500000     33.88400000      6.51200000
C      26.23500000     30.05800000      7.49700000
C      26.88200000     31.42800000      7.86200000
O      27.90600000     31.71100000      7.26400000
H      29.47000000     33.64700000      4.56000000
H      29.59500000     33.63500000      7.07700000
H      31.09520000     34.48230000      4.63800000
H      29.60530000     35.37950000      5.10770000
H      31.04940000     34.69580000      7.01660000
H      31.16480000     33.00520000      6.46380000
H      25.16500000     30.24200000      7.32000000
H      26.69280000     29.75830000      6.54270000
H      26.31330000     29.33410000      8.32150000
H      26.32170000     31.98910000      8.62440000
