11
pbedef2svp=-209.93813962523 b3lypdef2svp=-210.07527622524 b3lypvdz=-210.23879515075
C      30.09100000     34.39300000      5.07800000
O      31.44000000     34.51300000      4.48700000
N      31.24400000     34.98600000      7.19700000
C      30.50500000     33.88400000      6.51200000
H      29.47000000     33.64700000      4.56000000
H      32.04400000     33.95000000      4.95800000
H      31.93100000     35.53000000      6.71500000
H      29.59500000     33.63500000      7.07700000
H      29.60530000     35.37950000      5.10770000
H      31.02410000     35.15720000      8.15740000
H      31.16480000     33.00520000      6.46380000
