21
pbedef2svp=-311.55593720361
C      20.63800000     26.73500000     16.05300000
C      19.67700000     26.53900000     15.05100000
C      20.14200000     21.59000000     15.14900000
O      19.49900000     22.64500000     15.32100000
C      23.37600000     25.64500000     11.40900000
C      22.65000000     24.51600000     12.17200000
C      22.66200000     24.81900000     13.69900000
H      20.75100000     26.00800000     16.84400000
H      19.01600000     25.68500000     15.08000000
H      21.27670000     27.63030000     16.03170000
H      19.61040000     27.27310000     14.23450000
H      20.82360000     21.26920000     15.95060000
H      20.01740000     20.99970000     14.22920000
H      24.39600000     25.75900000     11.80600000
H      23.42500000     25.39200000     10.34000000
H      22.82500000     26.58800000     11.53800000
H      23.21600000     23.58600000     12.01300000
H      22.10700000     25.74900000     13.89000000
H      22.18400000     23.98900000     14.23900000
H      21.61880000     24.33800000     11.83300000
H      23.69790000     24.93390000     14.05070000
