11
pbedef2svp=-263.98588379625
C      38.36500000     29.33500000     24.15900000
O      37.68400000     29.39000000     25.22100000
N      35.04000000     30.25200000     26.73000000
C      34.33800000     29.10300000     26.65000000
N      34.01400000     28.65700000     25.45700000
H      38.86900000     28.41650000     23.82390000
H      38.40990000     30.19820000     23.47870000
H      35.16400000     30.85000000     25.93800000
H      33.57700000     27.75900000     25.49900000
H      35.42930000     30.47320000     27.62420000
H      34.14820000     28.54850000     27.58080000
