14
pbedef2svp=-307.03363911551 b3lypdef2svp=-307.23372806715 b3lypvdz=-307.47713475704
C      26.48200000     19.28000000     14.43200000
O      25.60900000     19.38800000     15.28700000
C      21.46000000     18.73700000     16.16300000
O      20.49700000     18.50600000     16.90000000
C      23.46100000     17.33100000     16.74100000
C      22.41800000     17.63800000     15.69300000
H      27.25840000     18.50640000     14.52510000
H      26.56800000     19.93400000     13.55170000
H      24.21600000     18.13000000     16.70200000
H      22.96200000     17.34600000     17.72100000
H      21.81600000     16.72700000     15.56300000
H      21.78600000     19.76470000     15.94510000
H      23.98920000     16.37030000     16.65190000
H      22.84630000     17.88950000     14.71150000
