8
pbedef2svp=-79.63504940994 b3lypdef2svp=-79.70036797656 b3lypvdz=-79.75795970448
C      35.75200000     32.05400000     28.16000000
C      35.61200000     30.57700000     28.04400000
H      36.76100000     32.34900000     27.83600000
H      35.60300000     32.35000000     29.20900000
H      36.60000000     30.10400000     28.14300000
H      34.94700000     30.20600000     28.83800000
H      35.00670000     32.56240000     27.53060000
H      35.18380000     30.33370000     27.06040000
