18
pbedef2svp=-326.42650066579 b3lypdef2svp=-326.64059859962 b3lypvdz=-326.89276033705
C      31.20000000     30.32900000     22.78000000
C      30.21000000     30.50900000     21.65000000
O      29.97800000     31.72600000     21.26900000
C      30.84700000     30.93100000     24.11800000
C      29.41200000     30.79600000     24.59800000
C      29.27100000     31.31400000     26.01600000
N      27.87500000     31.31700000     26.44300000
H      31.35500000     29.25000000     22.92500000
H      31.49100000     30.45600000     24.87200000
H      31.07600000     32.00600000     24.06500000
H      28.75300000     31.37500000     23.93500000
H      29.12000000     29.73600000     24.57000000
H      29.85100000     30.66900000     26.69200000
H      29.66200000     32.34100000     26.06300000
H      27.44700000     30.43800000     26.65100000
H      32.13930000     30.76110000     22.40440000
H      29.78370000     29.62250000     21.15760000
H      27.32000000     32.14310000     26.54080000
