18
pbedef2svp=-326.4870169371 b3lypdef2svp=-326.70083347698 b3lypvdz=-326.95156513885
N      26.46500000     25.68900000     21.83300000
C      26.82600000     24.52100000     21.01200000
C      25.34900000     26.87200000     23.64300000
C      25.74300000     25.58600000     22.92200000
O      25.32500000     24.48900000     23.37800000
C      26.07000000     27.02500000     24.96000000
C      27.55300000     27.35600000     24.69500000
H      26.78200000     26.59400000     21.54900000
H      25.96700000     23.83400000     21.00400000
H      25.55800000     27.73800000     22.99800000
H      25.61000000     27.84000000     25.53800000
H      25.99900000     26.08600000     25.52900000
H      28.02600000     26.52000000     24.15900000
H      27.62300000     28.26900000     24.08500000
H      27.67130000     23.98540000     21.46870000
H      26.98190000     24.85930000     19.97700000
H      24.26500000     26.76500000     23.79650000
H      28.06650000     27.51530000     25.65460000
