18
pbedef2svp=-326.48847181129 b3lypdef2svp=-326.70233124586 b3lypvdz=-326.95333038941
C      38.79400000     25.76100000     13.88000000
C      38.72800000     26.59100000     12.61100000
O      39.70400000     27.34600000     12.27700000
C      39.28500000     24.33600000     13.56600000
N      37.63300000     26.54300000     11.86700000
C      37.47100000     27.39100000     10.66800000
C      36.19300000     27.05800000      9.91100000
H      39.53500000     26.22600000     14.54600000
H      40.25500000     24.38700000     13.05000000
H      39.39800000     23.77200000     14.50400000
H      38.55200000     23.83000000     12.92000000
H      36.89700000     25.91700000     12.12400000
H      38.32600000     27.22700000      9.99500000
H      35.33700000     27.21800000     10.58200000
H      36.11200000     27.73300000      9.04600000
H      37.82360000     25.74750000     14.39780000
H      37.44960000     28.45600000     10.94230000
H      36.16410000     26.01980000      9.54860000
