16
pbedef2svp=-362.33214900122
C      36.01200000     30.86000000     19.22100000
C      36.08300000     30.19400000     17.87500000
O      35.04800000     29.70200000     17.39300000
N      37.22800000     30.12600000     17.23300000
C      38.81700000     28.02000000     19.88900000
C      38.42100000     28.04800000     21.34100000
O      37.21300000     28.03600000     21.70400000
H      35.81700000     31.93400000     19.08500000
H      36.97000000     30.72500000     19.74400000
H      37.27600000     29.67300000     16.34300000
H      38.05100000     30.52700000     17.63500000
H      35.20410000     30.41700000     19.82190000
H      38.00200000     28.46900000     19.30300000
H      39.74510000     28.57150000     19.67830000
H      39.01380000     27.01710000     19.48230000
H      39.22070000     28.08320000     22.09540000
