19
pbedef2svp=-347.47061039575 b3lypdef2svp=-347.70295797406 b3lypvdz=-347.97464610917
C      30.45900000     40.66600000     12.13000000
O      30.25300000     39.99100000     13.13300000
C      32.67200000     41.71700000     12.50500000
C      31.19100000     42.01200000     12.33100000
C      31.74400000     38.87900000     16.29900000
O      31.73700000     40.25700000     15.82400000
C      32.26000000     37.96900000     15.17100000
H      33.20000000     42.65600000     12.72600000
H      32.80100000     41.01800000     13.34500000
H      31.04300000     42.64100000     11.44100000
H      30.21240000     40.39270000     11.09340000
H      33.10360000     41.26910000     11.59780000
H      30.71680000     42.47330000     13.20980000
H      32.36600000     38.76400000     17.19900000
H      32.61800000     40.51000000     15.57300000
H      33.32000000     38.19100000     14.97600000
H      32.15500000     36.91600000     15.47300000
H      31.67400000     38.14900000     14.25800000
H      30.68610000     38.71460000     16.55180000
