13
pbedef2svp=-323.08935686479
C      30.05200000     35.04200000     20.00400000
O      30.10500000     36.30500000     19.78800000
N      30.13200000     40.06900000     18.64200000
C      30.22500000     38.64300000     16.66200000
C      29.66400000     39.83900000     17.43400000
O      28.85000000     40.56500000     16.85900000
H      29.86790000     34.38390000     19.14200000
H      30.11320000     34.60920000     21.01340000
H      30.85500000     39.48300000     19.00900000
H      30.16200000     37.75100000     17.30200000
H      29.77730000     40.81960000     19.19940000
H      29.62730000     38.48370000     15.75240000
H      31.28290000     38.80740000     16.40920000
