13
pbedef2svp=-231.97829836482 b3lypdef2svp=-232.13439746724 b3lypvdz=-232.314153041
C      31.22000000     27.34100000      4.27500000
C      31.82700000     27.26200000      2.89400000
C      31.36300000     28.41000000      1.96200000
C      31.67100000     28.29100000      0.49800000
O      30.86900000     28.62100000     -0.36600000
H      30.13900000     27.52500000      4.18300000
H      32.92200000     27.30900000      2.98900000
H      31.53900000     26.30300000      2.43900000
H      30.27100000     28.49200000      2.06200000
H      31.83500000     29.33600000      2.32200000
H      31.67060000     28.12700000      4.89880000
H      31.38000000     26.42350000      4.86030000
H      32.68700000     27.91570000      0.30600000
