11
pbedef2svp=-264.0356606964 b3lypdef2svp=-264.19797518352 b3lypvdz=-264.40383400353
N      26.84900000     29.65600000      6.21700000
C      26.23500000     30.05800000      7.49700000
C      26.88200000     31.42800000      7.86200000
O      27.90600000     31.71100000      7.26400000
N      26.21400000     32.09700000      8.77100000
H      27.84300000     29.68800000      6.11500000
H      25.16500000     30.24200000      7.32000000
H      25.36900000     31.73600000      9.16600000
H      26.28340000     29.35170000      5.45050000
H      26.31330000     29.33410000      8.32150000
H      26.58310000     32.98270000      9.05280000
