18
pbedef2svp=-326.48699828407 b3lypdef2svp=-326.70096216016 b3lypvdz=-326.95156455813
N      26.46500000     25.68900000     21.83300000
C      26.82600000     24.52100000     21.01200000
C      27.04300000     24.99200000     19.57100000
C      25.93100000     25.84400000     18.95900000
C      25.34900000     26.87200000     23.64300000
C      25.74300000     25.58600000     22.92200000
O      25.32500000     24.48900000     23.37800000
H      26.78200000     26.59400000     21.54900000
H      25.96700000     23.83400000     21.00400000
H      27.96900000     25.58500000     19.54900000
H      27.16400000     24.09800000     18.94200000
H      25.90600000     26.81600000     19.47400000
H      25.55800000     27.73800000     22.99800000
H      27.67130000     23.98540000     21.46870000
H      26.12640000     26.01570000     17.89020000
H      24.94360000     25.36710000     19.04650000
H      24.26500000     26.76500000     23.79650000
H      25.87450000     26.98350000     24.60290000
