9
pbedef2svp=-208.79644621388 b3lypdef2svp=-208.92640391642 b3lypvdz=-209.08965278997
C      29.27900000     23.22700000      5.64100000
O      28.47800000     23.52200000      4.72500000
N      29.38000000     22.05700000      6.23200000
C      28.46800000     20.94000000      5.98000000
H      30.12100000     21.92300000      6.89000000
H      27.69800000     21.22000000      5.24600000
H      30.00160000     23.95610000      6.03630000
H      27.99890000     20.70070000      6.94570000
H      29.00550000     20.04320000      5.63800000
