11
pbedef2svp=-209.92277181501
N      26.84900000     29.65600000      6.21700000
C      26.23500000     30.05800000      7.49700000
O      23.57900000     31.32100000      9.55400000
C      22.50400000     31.22800000     10.13600000
H      27.84300000     29.68800000      6.11500000
H      25.16500000     30.24200000      7.32000000
H      26.28340000     29.35170000      5.45050000
H      26.69170000     31.02500000      7.75460000
H      26.31330000     29.33410000      8.32150000
H      21.73270000     30.53490000      9.76920000
H      22.28250000     31.77120000     11.06650000
