16
pbedef2svp=-362.33935023981 b3lypdef2svp=-362.56852774887 b3lypvdz=-362.85385209648
O      25.32500000     24.48900000     23.37800000
C      25.34900000     26.87200000     23.64300000
C      25.74300000     25.58600000     22.92200000
N      26.46500000     25.68900000     21.83300000
C      28.76200000     29.57300000     19.90600000
C      27.33100000     29.31700000     20.36400000
O      27.10100000     28.34600000     21.09700000
H      25.55800000     27.73800000     22.99800000
H      26.78200000     26.59400000     21.54900000
H      24.26500000     26.76500000     23.79650000
H      25.87450000     26.98350000     24.60290000
H      26.71010000     24.89590000     21.27550000
H      28.81600000     30.60900000     19.54100000
H      29.45240000     29.47150000     20.75640000
H      29.04300000     28.90990000     19.07460000
H      26.59060000     30.07400000     20.06620000
