21
pbedef2svp=-344.85950468901
C      22.08500000     22.25400000     16.58100000
C      21.07900000     21.14900000     16.25100000
N      20.71700000     22.96400000     12.26000000
C      21.18400000     24.26300000     11.69000000
N      24.24000000     19.23300000     12.24600000
C      24.24100000     20.43600000     12.85700000
O      23.26400000     20.95100000     13.32900000
H      22.74300000     22.39600000     15.71100000
H      21.52900000     23.18300000     16.77600000
H      20.48400000     20.94600000     17.15300000
H      22.71140000     22.03330000     17.45790000
H      21.65630000     20.24960000     15.99060000
H      20.39740000     21.46980000     15.44940000
H      21.38500000     22.24600000     12.45600000
H      20.53700000     25.08800000     12.02200000
H      19.74930000     22.79780000     12.44970000
H      21.13070000     24.15350000     10.59680000
H      22.21520000     24.44100000     12.02900000
H      25.09100000     18.79700000     11.95400000
H      23.35340000     18.79510000     12.09710000
H      25.21610000     20.92100000     13.01190000
