15
pbedef2svp=-287.25284043537 b3lypdef2svp=-287.66047005616 b3lypvdz=-287.66047005616
C      36.33400000     31.74200000     23.08700000
O      35.57400000     32.61800000     23.48300000
N      36.00000000     30.86000000     22.17200000
C      34.73800000     30.87500000     21.47300000
C      34.87600000     30.23700000     20.06600000
C      36.01200000     30.86000000     19.22100000
H      36.65600000     30.13900000     21.94800000
H      34.44500000     31.92400000     21.31900000
H      35.08000000     29.16300000     20.18800000
H      33.92600000     30.37100000     19.52700000
H      35.81700000     31.93400000     19.08500000
H      36.97000000     30.72500000     19.74400000
H      37.33660000     31.66700000     23.53330000
H      33.90320000     30.37660000     21.98740000
H      36.06390000     30.37270000     18.23620000
