8
pbedef2svp=-228.64605425016 b3lypdef2svp=-228.78620723465 b3lypvdz=-228.96817833088
O      35.25200000     22.32200000     21.95800000
O      33.54400000     23.08600000     20.88300000
C      33.63800000     20.71600000     21.24200000
C      34.17400000     22.12900000     21.35400000
H      35.44700000     23.25200000     21.96900000
H      33.51900000     20.30000000     22.25300000
H      34.35900000     20.10600000     20.67800000
H      32.66610000     20.68350000     20.72780000
