6
pbedef2svp=-115.48466314139 b3lypdef2svp=-115.56284027339 b3lypvdz=-115.65423315714
O      22.49500000     34.69000000     10.58900000
C      22.69900000     34.26700000     11.98500000
H      22.18600000     35.58800000     10.57200000
H      21.74500000     34.28200000     12.53300000
H      23.05330000     33.22760000     11.92010000
H      23.43720000     34.88740000     12.51420000
