14
pbedef2svp=-158.09530825586 b3lypdef2svp=-158.21595453799 b3lypvdz=-158.3320667527
C      29.18300000     39.72200000     21.58100000
C      29.30800000     39.75000000     23.09500000
C      27.70000000     39.72100000     21.22800000
C      29.91900000     40.89000000     20.93800000
H      29.62800000     38.78600000     21.21200000
H      28.76600000     38.89400000     23.52400000
H      30.37000000     39.69000000     23.37600000
H      28.87900000     40.68700000     23.48100000
H      27.20800000     38.86400000     21.71100000
H      27.23900000     40.65500000     21.58100000
H      27.58300000     39.64300000     20.13700000
H      30.99700000     40.68600000     21.01500000
H      29.67500000     41.79500000     21.51400000
H      29.69490000     41.09830000     19.88140000
