9
pbedef2svp=-154.71950609713 b3lypdef2svp=-154.82615153328 b3lypvdz=-154.94563767056
C      22.92400000     18.58300000     12.02500000
C      23.05900000     17.32600000     11.15400000
O      23.91400000     16.39500000     11.75500000
H      22.28300000     19.29200000     11.48000000
H      22.06600000     16.87100000     11.02100000
H      23.46700000     17.60900000     10.17200000
H      23.98400000     15.62600000     11.20200000
H      23.89930000     19.06470000     12.18880000
H      22.41860000     18.33650000     12.97040000
