13
pbedef2svp=-323.10004492879 b3lypdef2svp=-323.3018261037 b3lypvdz=-323.55828194879
C      28.46900000     37.47500000     15.42000000
O      28.21300000     36.75300000     16.41100000
O      27.50700000     32.58700000     18.95800000
C      26.17900000     34.12700000     17.65000000
C      27.47500000     33.65100000     18.30400000
N      28.52500000     34.44700000     18.18900000
H      27.89990000     37.35800000     14.48590000
H      29.24750000     38.25190000     15.44120000
H      26.36900000     34.95900000     16.95600000
H      28.44200000     35.28300000     17.64600000
H      25.76500000     33.25010000     17.13070000
H      25.49380000     34.43800000     18.45240000
H      29.39950000     34.24000000     18.62760000
