16
pbedef2svp=-325.26040433506 b3lypdef2svp=-325.46990563009 b3lypvdz=-325.72238840186
C      26.13600000     35.34600000      6.64000000
N      28.26000000     33.94300000     11.09600000
C      26.77200000     33.43600000      9.19700000
C      27.15100000     33.36200000     10.65000000
O      26.35000000     32.77800000     11.39500000
C      25.69500000     34.49800000      8.94600000
C      25.28800000     34.60900000      7.49900000
H      27.00600000     35.85800000      7.02300000
H      28.87600000     34.37900000     10.44000000
H      27.66100000     33.67200000      8.59400000
H      24.80600000     34.23900000      9.53900000
H      26.08400000     35.47300000      9.27400000
H      25.88200000     35.38180000      5.57030000
H      28.49810000     33.95820000     12.06710000
H      26.36600000     32.46180000      8.88710000
H      24.38410000     34.09960000      7.13380000
