15
pbedef2svp=-287.20674439657 b3lypdef2svp=-287.39243566681 b3lypvdz=-287.61536697349
N      31.24400000     34.98600000      7.19700000
C      30.50500000     33.88400000      6.51200000
C      31.40900000     32.68000000      6.44600000
O      32.61900000     32.81200000      6.12500000
C      30.09100000     34.39300000      5.07800000
C      29.42000000     35.75600000      5.11900000
H      31.93100000     35.53000000      6.71500000
H      29.59500000     33.63500000      7.07700000
H      29.47000000     33.64700000      4.56000000
H      29.15200000     36.06400000      4.09800000
H      28.51000000     35.69800000      5.73500000
H      30.11200000     36.49200000      5.55400000
H      31.02410000     35.15720000      8.15740000
H      30.97270000     31.68690000      6.62880000
H      31.09520000     34.48230000      4.63800000
