13
pbedef2svp=-323.11062106134 b3lypdef2svp=-323.31015524784 b3lypvdz=-323.56490890554
C      31.42200000     43.94000000     17.55300000
C      30.75500000     44.35100000     16.27700000
O      31.20700000     45.26800000     15.56600000
C      32.97900000     43.91800000     17.44500000
O      33.17400000     43.06700000     16.26500000
N      29.72100000     43.67300000     15.88500000
H      31.15100000     44.66200000     18.33700000
H      33.35300000     44.93600000     17.26300000
H      34.10300000     42.97400000     16.09100000
H      29.42000000     42.90600000     16.45100000
H      31.10650000     42.93780000     17.87880000
H      33.46820000     43.48580000     18.33040000
H      29.20720000     43.87150000     15.05040000
