9
pbedef2svp=-208.80999933566 b3lypdef2svp=-208.94055906678 b3lypvdz=-209.10413659611
N      33.54800000     21.52600000     16.95000000
C      31.28800000     22.20100000     16.41700000
C      32.77600000     22.51900000     16.57700000
O      33.23300000     23.65900000     16.38400000
H      33.14600000     20.63400000     17.15600000
H      30.85300000     22.93800000     15.72600000
H      34.53630000     21.65660000     17.02930000
H      31.15610000     21.19280000     15.99730000
H      30.74430000     22.27110000     17.37060000
