23
pbedef2svp=-312.790997189
O      23.57900000     31.32100000      9.55400000
C      22.50400000     31.22800000     10.13600000
C      27.39300000     28.44200000     14.22900000
C      26.29000000     29.48000000     13.96000000
C      27.96700000     28.08700000     10.41700000
C      26.34400000     29.05000000      8.64500000
C      27.81000000     28.74800000      8.99900000
H      21.73270000     30.53490000      9.76920000
H      22.28250000     31.77120000     11.06650000
H      27.34200000     27.64700000     13.47100000
H      28.37700000     28.93200000     14.18100000
H      27.24900000     28.00500000     15.22800000
H      26.46700000     29.91100000     12.96300000
H      26.30460000     30.29590000     14.69760000
H      25.30590000     28.98870000     13.95420000
H      29.03100000     27.89400000     10.61600000
H      27.56800000     28.76600000     11.18400000
H      27.41100000     27.13800000     10.44300000
H      25.87900000     29.50700000      9.53100000
H      28.22100000     28.06200000      8.24300000
H      28.37700000     29.69100000      8.98500000
H      26.26570000     29.77390000      7.82050000
H      25.74960000     28.15870000      8.39550000
