11
pbedef2svp=-118.86588734831 b3lypdef2svp=-118.95899938083 b3lypvdz=-119.04599562784
C      35.92600000     35.97900000     21.73700000
C      35.00300000     35.08400000     20.92000000
C      35.11400000     36.56400000     22.90700000
H      36.73600000     35.36100000     22.15200000
H      35.56200000     34.65300000     20.07600000
H      34.62000000     34.27400000     21.55700000
H      34.16100000     35.67900000     20.53700000
H      34.52600000     37.42200000     22.55000000
H      35.80200000     36.89500000     23.69900000
H      36.36930000     36.78820000     21.13810000
H      34.43450000     35.79830000     23.30950000
