15
pbedef2svp=-378.39503477589
C      31.40900000     32.68000000      6.44600000
O      32.61900000     32.81200000      6.12500000
N      30.88400000     31.48500000      6.66600000
C      30.50500000     33.88400000      6.51200000
N      26.21400000     32.09700000      8.77100000
C      26.88200000     31.42800000      7.86200000
O      27.90600000     31.71100000      7.26400000
H      29.90500000     31.41600000      6.85800000
H      29.59500000     33.63500000      7.07700000
H      31.43200000     30.64880000      6.64730000
H      31.04940000     34.69580000      7.01660000
H      30.21620000     34.23900000      5.51170000
H      25.36900000     31.73600000      9.16600000
H      26.58310000     32.98270000      9.05280000
H      26.42530000     30.46100000      7.60440000
