22
pbedef2svp=-328.85740621286
C      22.08500000     22.25400000     16.58100000
C      21.07900000     21.14900000     16.25100000
C      23.37600000     25.64500000     11.40900000
C      22.65000000     24.51600000     12.17200000
N      24.24000000     19.23300000     12.24600000
C      24.24100000     20.43600000     12.85700000
O      23.26400000     20.95100000     13.32900000
H      22.74300000     22.39600000     15.71100000
H      21.52900000     23.18300000     16.77600000
H      20.48400000     20.94600000     17.15300000
H      22.71140000     22.03330000     17.45790000
H      21.65630000     20.24960000     15.99060000
H      20.39740000     21.46980000     15.44940000
H      24.39600000     25.75900000     11.80600000
H      23.42500000     25.39200000     10.34000000
H      22.82500000     26.58800000     11.53800000
H      23.21600000     23.58600000     12.01300000
H      21.61880000     24.33800000     11.83300000
H      22.65850000     24.73010000     13.25090000
H      25.09100000     18.79700000     11.95400000
H      23.35340000     18.79510000     12.09710000
H      25.21610000     20.92100000     13.01190000
