6
pbedef2svp=-169.57177035177 b3lypdef2svp=-169.67303835679 b3lypvdz=-169.80791216208
O      15.44000000     21.81900000     12.37800000
N      16.92400000     20.58600000     11.21600000
C      16.57600000     21.25800000     12.31500000
H      16.29000000     20.52600000     10.44500000
H      17.81900000     20.14300000     11.16300000
H      17.30320000     21.27530000     13.14010000
