20
pbedef2svp=-273.55521322883
C      35.61500000     22.19000000     15.75900000
O      36.53200000     23.04600000     15.72400000
C      35.71500000     26.20300000     17.17200000
C      34.34300000     26.44500000     17.89800000
C      38.81700000     28.02000000     19.88900000
C      39.09000000     26.62900000     19.32500000
H      35.18920000     21.84880000     16.71410000
H      35.21920000     21.71940000     14.84690000
H      35.94800000     25.12800000     17.16500000
H      36.51400000     26.74800000     17.69600000
H      34.05700000     27.50400000     17.81100000
H      33.56400000     25.81600000     17.44200000
H      35.62940000     26.57130000     16.13900000
H      34.46340000     26.17810000     18.95830000
H      38.00200000     28.46900000     19.30300000
H      39.53200000     25.97200000     20.08900000
H      38.16800000     26.17200000     18.93700000
H      39.74510000     28.57150000     19.67830000
H      38.52760000     28.04050000     20.95010000
H      39.80490000     26.82720000     18.51280000
