9
pbedef2svp=-208.81032971536 b3lypdef2svp=-208.94078963129 b3lypvdz=-209.10433787099
N      31.51000000     18.93600000     12.85200000
C      30.79600000     19.08300000     10.56600000
C      30.49100000     19.16200000     12.04000000
O      29.36700000     19.52300000     12.44100000
H      32.38900000     18.66700000     12.45900000
H      31.64900000     18.41000000     10.39300000
H      31.43240000     19.02460000     13.84500000
H      29.91060000     18.72500000     10.02010000
H      31.04840000     20.08980000     10.20180000
