15
pbedef2svp=-378.38327095733 b3lypdef2svp=-378.6149837742 b3lypvdz=-378.91220644727
N      26.46500000     25.68900000     21.83300000
C      25.74300000     25.58600000     22.92200000
O      25.32500000     24.48900000     23.37800000
N      26.43600000     30.23200000     20.00400000
C      25.03400000     30.17000000     20.40100000
C      27.33100000     29.31700000     20.36400000
O      27.10100000     28.34600000     21.09700000
H      26.78200000     26.59400000     21.54900000
H      26.71010000     24.89590000     21.27550000
H      25.45900000     26.51300000     23.44170000
H      26.73800000     30.99700000     19.43500000
H      24.85900000     29.26400000     21.00000000
H      24.36060000     30.15480000     19.53130000
H      24.76010000     31.04090000     21.01460000
H      28.36380000     29.50180000     20.03350000
