16
pbedef2svp=-362.31043215291
C      32.77600000     22.51900000     16.57700000
O      33.23300000     23.65900000     16.38400000
N      34.00700000     23.74500000     13.25000000
C      33.53300000     25.09700000     12.97800000
C      32.06000000     25.25700000     13.36400000
C      35.23800000     23.38200000     12.92000000
O      36.06600000     24.10900000     12.33300000
H      31.70620000     22.29040000     16.46200000
H      33.42330000     21.68640000     16.88970000
H      33.39700000     23.08600000     13.69000000
H      33.61300000     25.28200000     11.89700000
H      31.94400000     24.89900000     14.39800000
H      34.18780000     25.81960000     13.48710000
H      31.79120000     26.32350000     13.34830000
H      31.40290000     24.65200000     12.72210000
H      35.49140000     22.34750000     13.19500000
