17
pbedef2svp=-288.44121509896
C      23.72700000     35.13100000     12.72200000
C      23.21200000     32.76200000     11.89100000
C      22.69900000     34.26700000     11.98500000
C      27.15100000     33.36200000     10.65000000
O      26.35000000     32.77800000     11.39500000
N      28.26000000     33.94300000     11.09600000
H      23.36200000     36.16700000     12.78000000
H      23.87600000     34.73700000     13.73800000
H      24.68200000     35.10900000     12.17700000
H      24.14700000     32.76300000     11.31200000
H      21.74500000     34.28200000     12.53300000
H      22.48450000     32.09600000     11.40400000
H      23.42580000     32.37470000     12.89810000
H      22.54660000     34.58290000     10.94240000
H      28.87600000     34.37900000     10.44000000
H      26.87370000     33.41610000      9.58690000
H      28.49810000     33.95820000     12.06710000
