16
pbedef2svp=-362.32101115492
C      28.63800000     35.46100000     12.90000000
O      29.52200000     36.10300000     12.32000000
C      29.54200000     39.02000000     10.65300000
C      30.49400000     38.26100000      9.72900000
O      30.84900000     38.85000000      8.70600000
C      28.11300000     39.04900000     10.01500000
N      30.79500000     37.01500000     10.09500000
H      28.61460000     34.39800000     12.61790000
H      27.88010000     35.80790000     13.61780000
H      29.47700000     38.47800000     11.60800000
H      28.15100000     39.62800000      9.08100000
H      30.42700000     36.59700000     10.92600000
H      30.00500000     40.00260000     10.82670000
H      27.48210000     39.55870000     10.75800000
H      27.73750000     38.03760000      9.80040000
H      31.41480000     36.52850000      9.47920000
