13
pbedef2svp=-377.19119022868 b3lypdef2svp=-377.41546832901 b3lypvdz=-377.71260618872
C      26.48200000     19.28000000     14.43200000
O      25.60900000     19.38800000     15.28700000
N      26.58500000     20.06300000     13.37800000
C      25.59400000     21.10900000     13.07200000
C      24.24100000     20.43600000     12.85700000
O      23.26400000     20.95100000     13.32900000
N      24.24000000     19.23300000     12.24600000
H      27.36400000     19.94300000     12.76300000
H      25.51600000     21.80500000     13.92000000
H      25.09100000     18.79700000     11.95400000
H      27.25840000     18.50640000     14.52510000
H      25.94320000     21.66420000     12.18890000
H      23.35340000     18.79510000     12.09710000
