5
pbedef2svp=-40.41369346184 b3lypdef2svp=-40.45053016683 b3lypvdz=-40.47907896454
C      26.23500000     30.05800000      7.49700000
H      25.16500000     30.24200000      7.32000000
H      26.69280000     29.75830000      6.54270000
H      26.69170000     31.02500000      7.75460000
H      26.31330000     29.33410000      8.32150000
