10
pbedef2svp=-283.85368085298
C      24.24100000     20.43600000     12.85700000
O      23.26400000     20.95100000     13.32900000
C      21.46000000     18.73700000     16.16300000
O      20.49700000     18.50600000     16.90000000
N      21.84600000     19.95400000     15.90500000
H      25.21610000     20.92100000     13.01190000
H      24.24020000     19.45520000     12.35890000
H      22.72300000     20.07900000     15.44100000
H      22.14790000     17.94780000     15.82550000
H      21.32120000     20.77160000     16.14170000
