6
pbedef2svp=-115.47719935622 b3lypdef2svp=-115.55538246826 b3lypvdz=-115.64673334488
C      30.09100000     34.39300000      5.07800000
O      31.44000000     34.51300000      4.48700000
H      29.47000000     33.64700000      4.56000000
H      32.04400000     33.95000000      4.95800000
H      30.37980000     34.03800000      6.07830000
H      29.60530000     35.37950000      5.10770000
