12
pbedef2svp=-193.91552486447 b3lypdef2svp=-194.05226243425 b3lypvdz=-194.20260635926
C      42.90400000     32.41400000     20.55300000
C      41.82200000     33.18800000     19.81300000
C      40.76000000     34.03600000     23.39400000
O      41.97500000     34.00800000     23.62400000
H      43.23600000     32.95400000     21.45200000
H      43.76900000     32.21800000     19.90300000
H      41.10900000     33.65500000     20.50800000
H      42.25100000     33.95800000     19.15500000
H      42.38410000     31.48130000     20.81700000
H      41.35560000     32.37530000     19.23680000
H      40.15040000     33.17930000     23.71730000
H      40.23850000     34.85270000     22.87340000
