14
pbedef2svp=-249.16006103406
C      38.81700000     28.02000000     19.88900000
N      40.05900000     28.75800000     19.60700000
C      36.01200000     30.86000000     19.22100000
C      36.08300000     30.19400000     17.87500000
O      35.04800000     29.70200000     17.39300000
H      38.00200000     28.46900000     19.30300000
H      38.52760000     28.04050000     20.95010000
H      39.01380000     27.01710000     19.48230000
H      40.14220000     29.72580000     19.84440000
H      40.71650000     28.18600000     19.11660000
H      35.81700000     31.93400000     19.08500000
H      36.97000000     30.72500000     19.74400000
H      35.20410000     30.41700000     19.82190000
H      37.04120000     30.13710000     17.33770000
