8
pbedef2svp=-79.63878528114 b3lypdef2svp=-79.70407493275 b3lypvdz=-79.76170412001
C      25.11200000     24.88000000      3.64900000
C      25.35300000     24.86000000      5.13400000
H      24.23300000     25.51000000      3.45100000
H      24.90700000     23.85100000      3.31900000
H      26.29500000     24.33800000      5.35600000
H      25.40300000     25.88800000      5.52200000
H      25.95510000     25.26940000      3.05940000
H      24.50780000     24.32480000      5.59140000
