12
pbedef2svp=-193.92330844137
C      34.44100000     26.09900000     13.68400000
O      34.88300000     27.09000000     13.09300000
C      36.19300000     27.05800000      9.91100000
C      36.15300000     25.62000000      9.40900000
H      33.78620000     25.37640000     13.17490000
H      34.68380000     25.86950000     14.73200000
H      35.33700000     27.21800000     10.58200000
H      36.11200000     27.73300000      9.04600000
H      36.87800000     25.50100000      8.59000000
H      36.41500000     24.94000000     10.23300000
H      37.11650000     27.29860000     10.45800000
H      35.14570000     25.37450000      9.04150000
