11
pbedef2svp=-209.92057668081
C      26.88200000     31.42800000      7.86200000
O      27.90600000     31.71100000      7.26400000
N      30.88400000     31.48500000      6.66600000
C      31.67700000     30.27500000      6.63900000
H      26.42530000     30.46100000      7.60440000
H      26.32170000     31.98910000      8.62440000
H      29.90500000     31.41600000      6.85800000
H      32.72700000     30.46400000      6.36900000
H      31.28060000     32.38780000      6.49980000
H      31.20720000     29.56700000      5.94040000
H      31.59430000     29.85120000      7.65070000
