9
pbedef2svp=-208.79468599589 b3lypdef2svp=-208.92424872982 b3lypvdz=-209.08782981755
C      38.36500000     29.33500000     24.15900000
O      37.68400000     29.39000000     25.22100000
N      38.41900000     30.37300000     23.34100000
C      37.73800000     31.63700000     23.71200000
H      38.91700000     30.30600000     22.47600000
H      37.65300000     31.71100000     24.80600000
H      38.86900000     28.41650000     23.82390000
H      36.73540000     31.71200000     23.26570000
H      38.30060000     32.50360000     23.33460000
