17
pbedef2svp=-288.39423338258
N      29.59900000     18.59900000      9.82800000
C      30.79600000     19.08300000     10.56600000
C      31.15500000     20.51500000     10.04800000
O      28.44900000     20.67400000      8.36000000
C      28.46800000     20.94000000      5.98000000
C      27.81900000     20.60900000      7.31600000
H      29.07000000     19.20900000      9.23800000
H      31.64900000     18.41000000     10.39300000
H      30.22700000     21.08200000      9.88300000
H      31.76900000     21.02800000     10.80200000
H      29.34350000     17.63930000      9.94490000
H      30.57340000     19.14070000     11.64170000
H      31.71600000     20.45730000      9.10360000
H      27.69800000     21.22000000      5.24600000
H      29.15330000     21.77930000      6.16940000
H      29.00550000     20.04320000      5.63800000
H      26.76820000     20.28460000      7.29260000
