15
pbedef2svp=-233.1577376194
C      38.81700000     28.02000000     19.88900000
C      39.09000000     26.62900000     19.32500000
C      36.01200000     30.86000000     19.22100000
C      36.08300000     30.19400000     17.87500000
O      35.04800000     29.70200000     17.39300000
H      38.00200000     28.46900000     19.30300000
H      39.53200000     25.97200000     20.08900000
H      38.16800000     26.17200000     18.93700000
H      39.74510000     28.57150000     19.67830000
H      38.52760000     28.04050000     20.95010000
H      39.80490000     26.82720000     18.51280000
H      35.81700000     31.93400000     19.08500000
H      36.97000000     30.72500000     19.74400000
H      35.20410000     30.41700000     19.82190000
H      37.04120000     30.13710000     17.33770000
