13
pbedef2svp=-323.0385452529 b3lypdef2svp=-323.24245603943 b3lypvdz=-323.50015523446
C      40.16800000     30.02600000     19.91800000
O      39.26400000     30.66200000     20.52100000
C      36.33400000     31.74200000     23.08700000
O      35.57400000     32.61800000     23.48300000
N      38.41900000     30.37300000     23.34100000
C      37.73800000     31.63700000     23.71200000
H      41.10530000     30.55160000     19.68310000
H      40.07650000     28.96140000     19.65690000
H      38.91700000     30.30600000     22.47600000
H      37.65300000     31.71100000     24.80600000
H      36.05440000     31.00370000     22.32100000
H      38.37820000     29.58820000     23.95940000
H      38.30060000     32.50360000     23.33460000
