16
pbedef2svp=-159.27787775941
C      29.96300000     33.31700000     12.81400000
C      29.95700000     31.83800000     12.35200000
C      32.63100000     29.44400000      9.06000000
C      31.94500000     29.44900000     10.43600000
H      30.75600000     33.85900000     12.27900000
H      30.93100000     31.37900000     12.57700000
H      29.16300000     31.29200000     12.88200000
H      29.77200000     31.79300000     11.26900000
H      28.99080000     33.78090000     12.59130000
H      30.14340000     33.37300000     13.89770000
H      33.02000000     28.42800000      8.89700000
H      32.69500000     29.27400000     11.22100000
H      31.46200000     30.42300000     10.60100000
H      31.18600000     28.65300000     10.47000000
H      31.84380000     29.62220000      8.31260000
H      33.48990000     30.13090000      9.03820000
