11
pbedef2svp=-118.86683253296 b3lypdef2svp=-118.95995700455 b3lypvdz=-119.04681444913
C      30.84700000     30.93100000     24.11800000
C      29.41200000     30.79600000     24.59800000
C      29.27100000     31.31400000     26.01600000
H      31.49100000     30.45600000     24.87200000
H      31.07600000     32.00600000     24.06500000
H      28.75300000     31.37500000     23.93500000
H      29.12000000     29.73600000     24.57000000
H      29.85100000     30.66900000     26.69200000
H      29.66200000     32.34100000     26.06300000
H      31.10430000     30.49220000     23.14270000
H      28.21910000     31.31630000     26.33770000
