9
pbedef2svp=-208.75522314538 b3lypdef2svp=-208.88648201231 b3lypvdz=-209.05144566139
N      35.13900000     21.62400000     14.66200000
C      35.59000000     21.94500000     13.30200000
C      35.23800000     23.38200000     12.92000000
O      36.06600000     24.10900000     12.33300000
H      34.42500000     20.93200000     14.76600000
H      36.68700000     21.87000000     13.28900000
H      35.49880000     22.05180000     15.49120000
H      35.21250000     21.23590000     12.55060000
H      34.21620000     23.68330000     13.19390000
