12
pbedef2svp=-248.02929066918 b3lypdef2svp=-248.18851973037 b3lypvdz=-248.38059730032
C      21.55000000     26.79600000     23.13300000
C      23.04600000     27.08700000     22.91300000
O      23.38300000     27.62700000     21.87000000
N      23.88000000     26.72700000     23.85100000
C      25.34900000     26.87200000     23.64300000
H      21.34400000     26.67500000     24.20700000
H      23.53200000     26.35300000     24.71100000
H      25.55800000     27.73800000     22.99800000
H      20.98910000     27.64600000     22.71730000
H      21.32540000     25.86490000     22.59200000
H      25.63300000     25.94500000     23.12330000
H      25.87450000     26.98350000     24.60290000
