17
pbedef2svp=-342.49434922508 b3lypdef2svp=-342.71112039694 b3lypvdz=-342.97567954791
N      39.37400000     28.09000000     22.24000000
C      39.06300000     28.06300000     23.69500000
C      38.36500000     29.33500000     24.15900000
O      37.68400000     29.39000000     25.22100000
C      40.34000000     27.69200000     24.46800000
N      38.41900000     30.37300000     23.34100000
C      37.73800000     31.63700000     23.71200000
H      40.32700000     28.14100000     21.94300000
H      38.35200000     27.23900000     23.85600000
H      40.25700000     26.64900000     24.80900000
H      41.20300000     27.79000000     23.79400000
H      38.91700000     30.30600000     22.47600000
H      37.65300000     31.71100000     24.80600000
H      38.64700000     28.05800000     21.55420000
H      40.49880000     28.33940000     25.34300000
H      36.73540000     31.71200000     23.26570000
H      38.30060000     32.50360000     23.33460000
