17
pbedef2svp=-342.48191756403 b3lypdef2svp=-342.69948861265 b3lypvdz=-342.96335744257
C      32.99500000     35.88300000      9.93400000
N      30.16300000     40.33800000     10.88600000
C      29.54200000     39.02000000     10.65300000
C      30.49400000     38.26100000      9.72900000
O      30.84900000     38.85000000      8.70600000
N      30.79500000     37.01500000     10.09500000
C      31.72000000     36.28900000      9.17600000
H      33.82000000     36.38500000      9.40700000
H      30.35300000     40.96100000     10.12800000
H      29.47700000     38.47800000     11.60800000
H      30.42700000     36.59700000     10.92600000
H      32.03600000     37.01200000      8.41000000
H      33.21760000     34.80790000      9.86670000
H      33.07410000     36.22850000     10.97530000
H      30.38720000     40.58650000     11.82830000
H      28.53770000     39.04040000     10.20460000
H      31.16040000     35.50050000      8.65150000
