15
pbedef2svp=-233.16103345267
C      19.76200000     25.07700000     22.45500000
C      19.63400000     23.88500000     21.53100000
C      18.45300000     28.94100000     20.59100000
O      17.86000000     27.99400000     21.12800000
C      18.44300000     29.14300000     19.08300000
H      19.49400000     24.79200000     23.48300000
H      19.10600000     25.89300000     22.11700000
H      20.63700000     23.57900000     21.19900000
H      19.16000000     23.05700000     22.07800000
H      20.81510000     25.39150000     22.40950000
H      19.02350000     24.12830000     20.64890000
H      17.83100000     30.03000000     18.86300000
H      19.06070000     29.67380000     21.14210000
H      19.46170000     29.31810000     18.70670000
H      18.01730000     28.28560000     18.54110000
