15
pbedef2svp=-378.36124143132
C      30.95500000     35.21100000      8.45900000
O      30.02500000     34.61800000      9.04000000
N      31.24400000     34.98600000      7.19700000
N      27.75100000     35.86700000     13.74000000
C      27.69100000     37.31500000     14.14300000
C      28.63800000     35.46100000     12.90000000
O      29.52200000     36.10300000     12.32000000
H      31.93100000     35.53000000      6.71500000
H      31.51460000     35.99950000      8.98350000
H      30.74910000     34.24800000      6.73830000
H      27.09800000     35.21600000     14.12700000
H      28.13900000     37.93800000     13.35500000
H      28.26010000     37.43200000     15.07710000
H      26.63020000     37.58090000     14.26120000
H      28.61460000     34.39800000     12.61790000
