11
pbedef2svp=-304.89525934572
C      27.29900000     17.05500000     13.53300000
O      25.92500000     16.61100000     13.91300000
C      24.18400000     16.01600000     16.61900000
O      25.30300000     15.89400000     17.15200000
O      23.57200000     15.10700000     15.97500000
H      27.28300000     17.48700000     12.52200000
H      25.65000000     15.90600000     13.33900000
H      27.49310000     17.85740000     14.25990000
H      27.97910000     16.19060000     13.55110000
H      24.10000000     14.31700000     15.96200000
H      23.65580000     16.97670000     16.70810000
