16
pbedef2svp=-159.27888374094 b3lypdef2svp=-159.40847658543 b3lypvdz=-159.52378781214
C      30.84700000     30.93100000     24.11800000
C      29.41200000     30.79600000     24.59800000
C      26.07000000     27.02500000     24.96000000
C      27.55300000     27.35600000     24.69500000
H      31.49100000     30.45600000     24.87200000
H      31.07600000     32.00600000     24.06500000
H      28.75300000     31.37500000     23.93500000
H      29.12000000     29.73600000     24.57000000
H      31.10430000     30.49220000     23.14270000
H      29.30970000     31.17180000     25.62670000
H      25.61000000     27.84000000     25.53800000
H      25.99900000     26.08600000     25.52900000
H      28.02600000     26.52000000     24.15900000
H      27.62300000     28.26900000     24.08500000
H      25.54450000     26.91350000     24.00010000
H      28.06650000     27.51530000     25.65460000
