21
pbedef2svp=-274.49376970261 b3lypdef2svp=-274.69728740055 b3lypvdz=-274.90377330416
C      24.51700000     21.47000000     20.03000000
C      22.43700000     22.15700000     19.06500000
C      25.05200000     21.28500000     18.77600000
C      23.20400000     21.90700000     20.19200000
C      26.92600000     18.19100000     18.89200000
C      26.62100000     17.79900000     20.35200000
C      26.01000000     16.37000000     20.28000000
H      21.42600000     22.51800000     19.18200000
H      26.07000000     20.94100000     18.66600000
H      22.79100000     22.04900000     21.18000000
H      25.09870000     21.33630000     20.95400000
H      22.83830000     21.99430000     18.05380000
H      24.43870000     21.48870000     17.88590000
H      27.14900000     19.26800000     18.86300000
H      26.03200000     17.98500000     18.28500000
H      27.54500000     17.79200000     20.94900000
H      25.90200000     18.50300000     20.79700000
H      25.04200000     16.33600000     20.80100000
H      25.87400000     16.05900000     19.23400000
H      27.77560000     17.65050000     18.44920000
H      26.74420000     15.72400000     20.78370000
