7
pbedef2svp=-95.63976699313 b3lypdef2svp=-95.70926341449 b3lypvdz=-95.78057014407
N      37.63300000     26.54300000     11.86700000
C      37.47100000     27.39100000     10.66800000
H      36.89700000     25.91700000     12.12400000
H      38.32600000     27.22700000      9.99500000
H      38.45960000     26.57920000     12.42860000
H      37.44960000     28.45600000     10.94230000
H      36.54750000     27.15040000     10.12100000
