9
pbedef2svp=-208.80799420947 b3lypdef2svp=-208.93752457273 b3lypvdz=-209.1015515859
N      37.63300000     26.54300000     11.86700000
C      38.79400000     25.76100000     13.88000000
C      38.72800000     26.59100000     12.61100000
O      39.70400000     27.34600000     12.27700000
H      36.89700000     25.91700000     12.12400000
H      39.53500000     26.22600000     14.54600000
H      37.52340000     27.11700000     11.05550000
H      37.82360000     25.74750000     14.39780000
H      39.14480000     24.74290000     13.65570000
