11
pbedef2svp=-209.92587874252
N      23.14100000     29.18700000     19.24100000
C      22.12600000     29.06200000     18.18300000
C      23.04600000     27.08700000     22.91300000
O      23.38300000     27.62700000     21.87000000
H      23.12400000     28.54900000     20.01100000
H      21.95700000     30.04300000     17.71400000
H      23.84700000     29.89450000     19.20790000
H      21.20430000     28.75290000     18.69770000
H      22.39300000     28.33290000     17.40380000
H      21.97730000     26.87910000     23.07020000
H      23.74860000     26.78370000     23.70320000
