14
pbedef2svp=-195.12430615232
O      33.77800000     18.73900000     14.51600000
C      32.49200000     18.19300000     14.99500000
C      35.66700000     20.38300000     17.44700000
C      37.12800000     20.29300000     17.87200000
H      34.49400000     18.25400000     14.90900000
H      32.40300000     18.31600000     16.08500000
H      31.72450000     18.80410000     14.49760000
H      32.39220000     17.12890000     14.73480000
H      35.07400000     19.98200000     18.28200000
H      35.55700000     19.72700000     16.57100000
H      37.75600000     20.74400000     17.09000000
H      37.26100000     20.84600000     18.81300000
H      35.20970000     21.34580000     17.17520000
H      37.44130000     19.24960000     18.02400000
