15
pbedef2svp=-229.3475150281
C      29.47200000     35.18100000     23.49800000
C      29.82100000     35.95700000     24.76500000
C      27.13200000     32.42300000     26.57400000
N      27.63000000     33.65600000     26.46100000
N      27.87500000     31.31700000     26.44300000
H      29.51300000     34.11600000     23.77100000
H      29.05300000     35.77400000     25.53100000
H      30.80000000     35.62400000     25.14100000
H      29.86200000     37.03200000     24.53700000
H      30.20040000     35.31700000     22.68500000
H      28.43580000     35.37980000     23.18710000
H      26.91600000     34.35400000     26.51200000
H      27.44700000     30.43800000     26.65100000
H      26.04450000     32.32100000     26.70400000
H      28.83130000     31.31490000     26.15050000
