18
pbedef2svp=-326.48886018719 b3lypdef2svp=-326.70342168622 b3lypvdz=-326.95406017118
C      35.59600000     26.71500000     15.73600000
C      36.97500000     26.82600000     15.10700000
O      37.57900000     27.92600000     15.15900000
C      35.71500000     26.20300000     17.17200000
N      37.49900000     25.74300000     14.57100000
C      38.79400000     25.76100000     13.88000000
C      39.28500000     24.33600000     13.56600000
H      35.14500000     27.71800000     15.76300000
H      35.94800000     25.12800000     17.16500000
H      36.51400000     26.74800000     17.69600000
H      36.99800000     24.88000000     14.63700000
H      39.53500000     26.22600000     14.54600000
H      40.25500000     24.38700000     13.05000000
H      39.39800000     23.77200000     14.50400000
H      38.55200000     23.83000000     12.92000000
H      34.95080000     26.04660000     15.14690000
H      34.75430000     26.37240000     17.68030000
H      38.74620000     26.36250000     12.96030000
