14
pbedef2svp=-361.1263174933 b3lypdef2svp=-361.34514724718 b3lypvdz=-361.6311151874
C      40.44900000     32.27800000     17.94500000
O      39.93600000     31.33600000     17.31500000
N      41.18900000     32.08500000     19.03100000
C      41.46100000     30.75100000     19.59400000
C      40.16800000     30.02600000     19.91800000
O      39.26400000     30.66200000     20.52100000
C      42.19500000     31.14200000     20.91300000
H      42.11200000     30.14800000     18.94400000
H      41.47600000     31.30900000     21.72900000
H      42.91200000     30.36200000     21.21000000
H      40.28750000     33.31930000     17.62930000
H      41.61300000     32.82380000     19.55480000
H      40.07650000     28.96140000     19.65690000
H      42.71490000     32.07470000     20.64900000
