7
pbedef2svp=-149.69702762675 b3lypdef2svp=-149.79061870124 b3lypvdz=-149.9081862132
N      28.51900000     13.96700000     21.55000000
C      27.60300000     14.42300000     20.65500000
N      27.47900000     13.73300000     19.53700000
H      29.05600000     13.14900000     21.34300000
H      28.65600000     14.45000000     22.41500000
H      28.09800000     12.94800000     19.51000000
H      27.07040000     15.35420000     20.89840000
