11
pbedef2svp=-321.90872387597 b3lypdef2svp=-322.10222069922 b3lypvdz=-322.35827684771
C      24.10100000     30.14900000     19.19600000
O      24.19600000     30.94800000     18.28700000
N      23.14100000     29.18700000     19.24100000
C      22.12600000     29.06200000     18.18300000
C      20.83500000     28.62900000     18.90400000
O      20.82100000     27.73400000     19.74900000
H      23.12400000     28.54900000     20.01100000
H      21.95700000     30.04300000     17.71400000
H      24.77440000     30.16420000     20.06570000
H      22.39300000     28.33290000     17.40380000
H      19.97480000     29.25760000     18.63040000
