8
pbedef2svp=-79.63431181023 b3lypdef2svp=-79.69938867351 b3lypvdz=-79.75711868072
C      24.29900000     20.13400000      6.70400000
C      25.71400000     20.10800000      6.07300000
H      23.56000000     19.67000000      6.03400000
H      23.98900000     21.16400000      6.93600000
H      25.90100000     19.16700000      5.53500000
H      25.87000000     20.95700000      5.39100000
H      24.42420000     19.54320000      7.62340000
H      26.34030000     20.19100000      6.97350000
