19
pbedef2svp=-343.62438082334
N      26.84900000     29.65600000      6.21700000
C      26.23500000     30.05800000      7.49700000
C      25.28800000     34.60900000      7.49900000
C      24.14700000     33.96600000      7.03800000
O      23.57900000     31.32100000      9.55400000
N      22.24100000     31.87300000     11.24100000
C      22.50400000     31.22800000     10.13600000
H      27.84300000     29.68800000      6.11500000
H      25.16500000     30.24200000      7.32000000
H      26.28340000     29.35170000      5.45050000
H      26.69170000     31.02500000      7.75460000
H      26.31330000     29.33410000      8.32150000
H      23.51900000     33.41800000      7.72500000
H      25.58500000     34.52800000      8.55500000
H      25.94760000     35.18220000      6.83090000
H      23.88440000     34.01700000      5.97100000
H      21.34100000     31.75600000     11.66200000
H      22.90230000     32.47850000     11.68370000
H      21.73270000     30.53490000      9.76920000
