17
pbedef2svp=-346.27854373537
C      23.81200000     34.03100000      5.67700000
C      24.14700000     33.96600000      7.03800000
C      21.02300000     31.22300000      4.78400000
C      21.86100000     31.34200000      3.47400000
C      21.15600000     30.72600000      2.31100000
O      19.94200000     30.79300000      2.17000000
O      21.95400000     30.15200000      1.53500000
H      22.94800000     33.51100000      5.29000000
H      23.51900000     33.41800000      7.72500000
H      24.45850000     34.62870000      5.01770000
H      25.05090000     34.47540000      7.40320000
H      20.13500000     30.60100000      4.60000000
H      20.70800000     32.22400000      5.11400000
H      22.03900000     32.40600000      3.26000000
H      22.82400000     30.83100000      3.61900000
H      21.47300000     29.77100000      0.81000000
H      21.64800000     30.75640000      5.55960000
