16
pbedef2svp=-159.27754876962
C      32.63100000     29.44400000      9.06000000
C      33.81400000     30.39000000      9.03000000
C      36.15300000     25.62000000      9.40900000
C      34.75800000     25.28000000      8.90000000
H      33.02000000     28.42800000      8.89700000
H      34.52800000     30.11100000      9.81900000
H      34.30900000     30.32700000      8.05000000
H      33.46500000     31.41900000      9.19900000
H      31.84380000     29.62220000      8.31260000
H      32.14020000     29.44760000     10.04440000
H      36.87800000     25.50100000      8.59000000
H      36.41500000     24.94000000     10.23300000
H      34.16900000     24.86400000      9.73100000
H      34.27900000     26.20100000      8.53600000
H      36.18190000     26.65820000      9.77140000
H      34.78330000     24.54580000      8.08130000
