20
pbedef2svp=-290.51414847882 b3lypdef2svp=-290.72202203872 b3lypvdz=-290.94359463064
C      22.94500000     21.95100000     17.78500000
C      24.27200000     21.54400000     17.64400000
C      22.43700000     22.15700000     19.06500000
C      23.20400000     21.90700000     20.19200000
C      19.63400000     23.88500000     21.53100000
C      18.79100000     24.22100000     20.31300000
N      17.44000000     24.65500000     20.82700000
H      24.69800000     21.42900000     16.65800000
H      21.42600000     22.51800000     19.18200000
H      22.79100000     22.04900000     21.18000000
H      22.31860000     22.17170000     16.90810000
H      24.88530000     21.34030000     18.53410000
H      24.24060000     21.56200000     20.06410000
H      20.63700000     23.57900000     21.19900000
H      19.16000000     23.05700000     22.07800000
H      19.25900000     25.03600000     19.74100000
H      18.68500000     23.33500000     19.66900000
H      16.84800000     24.88700000     20.05500000
H      17.02800000     23.91000000     21.35100000
H      19.72700000     24.75130000     22.20250000
