14
pbedef2svp=-303.25055378767 b3lypdef2svp=-303.43987429053 b3lypvdz=-303.67546424934
C      38.81700000     28.02000000     19.88900000
C      38.42100000     28.04800000     21.34100000
O      37.21300000     28.03600000     21.70400000
C      41.03500000     27.90900000     18.87900000
N      39.37400000     28.09000000     22.24000000
N      40.05900000     28.75800000     19.60700000
H      38.00200000     28.46900000     19.30300000
H      41.73000000     27.40700000     19.56800000
H      41.60700000     28.49000000     18.14100000
H      40.32700000     28.14100000     21.94300000
H      39.01380000     27.01710000     19.48230000
H      40.35580000     27.19270000     18.39360000
H      39.16500000     28.07190000     23.21770000
H      40.14220000     29.72580000     19.84440000
