10
pbedef2svp=-192.74637021632 b3lypdef2svp=-192.87406202104 b3lypvdz=-193.02471043635
O      29.13900000     18.13200000     25.74600000
C      28.34800000     20.54000000     23.06600000
C      29.24700000     19.45600000     23.70500000
C      28.72200000     19.04700000     25.06600000
H      27.77300000     21.00700000     23.87900000
H      27.66000000     20.02800000     22.37700000
H      29.26900000     18.57400000     23.04800000
H      30.26600000     19.85500000     23.81800000
H      28.83200000     21.35060000     22.50140000
H      27.90420000     19.73500000     25.32650000
