15
pbedef2svp=-378.3280071239
C      28.37500000     17.99900000     16.88700000
O      29.32600000     18.78600000     16.69000000
N      31.51000000     18.93600000     12.85200000
C      31.39800000     19.06400000     14.28600000
C      31.59300000     20.55300000     14.65500000
O      32.15900000     21.31100000     13.86100000
N      31.11300000     20.86300000     15.86000000
H      28.18190000     17.59410000     17.89140000
H      27.64840000     17.73860000     16.10330000
H      32.38900000     18.66700000     12.45900000
H      30.40500000     18.73500000     14.62700000
H      30.62600000     20.16900000     16.39000000
H      30.73940000     19.10690000     12.23800000
H      32.16550000     18.45290000     14.78340000
H      31.23290000     21.77950000     16.24150000
