16
pbedef2svp=-362.31663338937
N      23.88000000     26.72700000     23.85100000
C      23.04600000     27.08700000     22.91300000
O      23.38300000     27.62700000     21.87000000
C      25.34900000     26.87200000     23.64300000
C      22.12600000     29.06200000     18.18300000
C      20.83500000     28.62900000     18.90400000
O      20.82100000     27.73400000     19.74900000
H      23.53200000     26.35300000     24.71100000
H      25.55800000     27.73800000     22.99800000
H      21.97730000     26.87910000     23.07020000
H      25.63300000     25.94500000     23.12330000
H      25.87450000     26.98350000     24.60290000
H      21.95700000     30.04300000     17.71400000
H      22.88480000     29.15540000     18.97390000
H      22.39300000     28.33290000     17.40380000
H      19.97480000     29.25760000     18.63040000
