6
pbedef2svp=-169.56655642208 b3lypdef2svp=-169.66834098479 b3lypvdz=-169.80275630799
N      37.19700000     35.39700000     27.51300000
C      36.67100000     34.29600000     27.08900000
O      37.30500000     33.23300000     26.79500000
H      36.61300000     36.17900000     27.72900000
H      38.18810000     35.46770000     27.62550000
H      35.58340000     34.20810000     26.95000000
