17
pbedef2svp=-288.43434548843
N      30.12400000     34.53300000     21.19100000
C      30.05200000     35.04200000     20.00400000
O      30.10500000     36.30500000     19.78800000
C      31.74400000     38.87900000     16.29900000
C      32.26000000     37.96900000     15.17100000
C      30.22500000     38.64300000     16.66200000
H      29.93800000     33.55900000     21.31800000
H      30.36200000     35.09350000     21.98420000
H      29.86790000     34.38390000     19.14200000
H      32.36600000     38.76400000     17.19900000
H      33.32000000     38.19100000     14.97600000
H      32.15500000     36.91600000     15.47300000
H      31.67400000     38.14900000     14.25800000
H      30.16200000     37.75100000     17.30200000
H      31.73870000     39.91890000     15.94050000
H      29.62730000     38.48370000     15.75240000
H      29.82170000     39.50280000     17.21700000
