14
pbedef2svp=-303.26761139734 b3lypdef2svp=-303.45718653263 b3lypvdz=-303.69241618264
N      36.81100000     29.17000000     12.19200000
C      36.73100000     30.57000000     12.64500000
N      37.63300000     26.54300000     11.86700000
C      37.47100000     27.39100000     10.66800000
C      37.44100000     28.88200000     11.05200000
O      38.02000000     29.77200000     10.38200000
H      36.39600000     28.44100000     12.73600000
H      36.42300000     31.20600000     11.80200000
H      36.89700000     25.91700000     12.12400000
H      38.32600000     27.22700000      9.99500000
H      37.74640000     30.86450000     12.94880000
H      36.01010000     30.71520000     13.46310000
H      38.45960000     26.57920000     12.42860000
H      36.54750000     27.15040000     10.12100000
