18
pbedef2svp=-363.49612544501
C      24.24100000     20.43600000     12.85700000
O      23.26400000     20.95100000     13.32900000
C      23.37600000     25.64500000     11.40900000
C      22.65000000     24.51600000     12.17200000
C      20.14200000     21.59000000     15.14900000
O      19.49900000     22.64500000     15.32100000
N      19.99300000     20.88400000     14.04900000
H      25.21610000     20.92100000     13.01190000
H      24.24020000     19.45520000     12.35890000
H      24.39600000     25.75900000     11.80600000
H      23.42500000     25.39200000     10.34000000
H      22.82500000     26.58800000     11.53800000
H      23.21600000     23.58600000     12.01300000
H      21.61880000     24.33800000     11.83300000
H      22.65850000     24.73010000     13.25090000
H      20.50600000     20.03400000     13.92400000
H      20.82360000     21.26920000     15.95060000
H      19.36490000     21.20080000     13.33830000
