18
pbedef2svp=-326.43713513198 b3lypdef2svp=-326.65057947358 b3lypvdz=-326.90248420704
N      30.12400000     34.53300000     21.19100000
C      30.47900000     35.36900000     22.37400000
C      31.90100000     34.91000000     22.72800000
O      32.19000000     33.69600000     22.63500000
C      29.47200000     35.18100000     23.49800000
C      29.82100000     35.95700000     24.76500000
C      28.04900000     35.45400000     23.07100000
H      29.93800000     33.55900000     21.31800000
H      30.50500000     36.43000000     22.08400000
H      29.51300000     34.11600000     23.77100000
H      29.05300000     35.77400000     25.53100000
H      30.80000000     35.62400000     25.14100000
H      29.86200000     37.03200000     24.53700000
H      27.37300000     35.30100000     23.92600000
H      27.96500000     36.49300000     22.71900000
H      27.77200000     34.76700000     22.25700000
H      30.06830000     34.92650000     20.27340000
H      32.62350000     35.68200000     23.03140000
