16
pbedef2svp=-362.32542007461 b3lypdef2svp=-362.55165722233 b3lypvdz=-362.83617269823
C      30.95500000     35.21100000      8.45900000
O      30.02500000     34.61800000      9.04000000
N      31.24400000     34.98600000      7.19700000
C      30.50500000     33.88400000      6.51200000
C      30.09100000     34.39300000      5.07800000
O      31.44000000     34.51300000      4.48700000
C      31.72000000     36.28900000      9.17600000
H      31.93100000     35.53000000      6.71500000
H      29.59500000     33.63500000      7.07700000
H      29.47000000     33.64700000      4.56000000
H      32.04400000     33.95000000      4.95800000
H      32.03600000     37.01200000      8.41000000
H      31.16480000     33.00520000      6.46380000
H      29.60530000     35.37950000      5.10770000
H      31.03820000     36.82410000      9.85340000
H      32.63200000     35.99860000      9.71820000
