7
pbedef2svp=-95.6381524738 b3lypdef2svp=-95.70757591132 b3lypvdz=-95.7789660688
N      39.37400000     28.09000000     22.24000000
C      39.06300000     28.06300000     23.69500000
H      40.32700000     28.14100000     21.94300000
H      38.35200000     27.23900000     23.85600000
H      38.64700000     28.05800000     21.55420000
H      38.55900000     28.98150000     24.03010000
H      39.97620000     27.79770000     24.24780000
