14
pbedef2svp=-303.27163330317 b3lypdef2svp=-303.4621564525 b3lypvdz=-303.6969320266
N      32.47800000     30.91700000     22.26900000
N      36.00000000     30.86000000     22.17200000
C      34.73800000     30.87500000     21.47300000
C      33.58900000     30.18900000     22.18100000
O      33.58000000     29.00900000     22.49900000
C      34.87600000     30.23700000     20.06600000
H      32.49800000     31.87600000     21.98800000
H      36.65600000     30.13900000     21.94800000
H      34.44500000     31.92400000     21.31900000
H      35.08000000     29.16300000     20.18800000
H      33.92600000     30.37100000     19.52700000
H      31.62410000     30.52410000     22.61040000
H      36.25420000     31.53120000     22.86830000
H      35.68390000     30.68000000     19.46510000
