19
pbedef2svp=-347.44482433877
C      28.40700000     22.94800000     16.36600000
C      29.00600000     22.04300000     17.44200000
C      28.37500000     17.99900000     16.88700000
O      29.32600000     18.78600000     16.69000000
C      29.01500000     21.65700000     22.28800000
C      29.94200000     21.10600000     21.24000000
O      29.47000000     20.67700000     20.19000000
H      27.34900000     22.68900000     16.21600000
H      28.48600000     23.99800000     16.68500000
H      28.95600000     22.80900000     15.42300000
H      28.90200000     21.00100000     17.10700000
H      28.43100000     22.19000000     18.36800000
H      30.06740000     22.22320000     17.66770000
H      28.18190000     17.59410000     17.89140000
H      27.64840000     17.73860000     16.10330000
H      29.58400000     22.29400000     22.98200000
H      28.21680000     22.24540000     21.81190000
H      28.53100000     20.84640000     22.85260000
H      31.02640000     21.09260000     21.42400000
