16
pbedef2svp=-362.32243290387 b3lypdef2svp=-362.55055513504 b3lypvdz=-362.83610993806
C      38.36500000     29.33500000     24.15900000
O      37.68400000     29.39000000     25.22100000
N      38.41900000     30.37300000     23.34100000
C      37.73800000     31.63700000     23.71200000
C      41.46100000     30.75100000     19.59400000
C      40.16800000     30.02600000     19.91800000
O      39.26400000     30.66200000     20.52100000
H      38.91700000     30.30600000     22.47600000
H      37.65300000     31.71100000     24.80600000
H      38.86900000     28.41650000     23.82390000
H      36.73540000     31.71200000     23.26570000
H      38.30060000     32.50360000     23.33460000
H      42.11200000     30.14800000     18.94400000
H      41.25790000     31.74700000     19.17360000
H      41.97880000     31.02680000     20.52450000
H      40.07650000     28.96140000     19.65690000
