7
pbedef2svp=-95.64677645932 b3lypdef2svp=-95.71628675227 b3lypvdz=-95.78941935296
C      33.20600000     26.31100000     20.12200000
N      33.45500000     25.91000000     21.54600000
H      32.92400000     27.37300000     20.07200000
H      32.40100000     25.69700000     19.69200000
H      32.62200000     26.04800000     22.08200000
H      33.71700000     24.94500000     21.58000000
H      34.14430000     26.14250000     19.57330000
