16
pbedef2svp=-159.27976393538 b3lypdef2svp=-159.40950173761 b3lypvdz=-159.52484070623
C      27.96700000     28.08700000     10.41700000
C      27.81000000     28.74800000      8.99900000
C      24.94200000     28.80700000     13.95200000
C      26.29000000     29.48000000     13.96000000
H      29.03100000     27.89400000     10.61600000
H      27.56800000     28.76600000     11.18400000
H      27.41100000     27.13800000     10.44300000
H      28.22100000     28.06200000      8.24300000
H      28.37700000     29.69100000      8.98500000
H      26.76150000     28.96400000      8.74580000
H      24.94200000     27.99400000     13.21100000
H      24.73300000     28.39300000     14.95000000
H      24.16700000     29.54200000     13.69000000
H      26.46700000     29.91100000     12.96300000
H      26.30460000     30.29590000     14.69760000
H      27.07870000     28.73780000     14.15240000
