14
pbedef2svp=-307.02746377104
C      25.69800000     32.87600000     15.66900000
O      26.15800000     33.73000000     14.89400000
C      26.77200000     33.43600000      9.19700000
C      27.15100000     33.36200000     10.65000000
O      26.35000000     32.77800000     11.39500000
C      25.69500000     34.49800000      8.94600000
H      25.30670000     31.97290000     15.17790000
H      25.63210000     32.93510000     16.76540000
H      27.66100000     33.67200000      8.59400000
H      24.80600000     34.23900000      9.53900000
H      26.08400000     35.47300000      9.27400000
H      26.36600000     32.46180000      8.88710000
H      28.06890000     33.84290000     11.01910000
H      25.39800000     34.57900000      7.89000000
