16
pbedef2svp=-362.34544280152 b3lypdef2svp=-362.57204176709 b3lypvdz=-362.85599624524
C      30.22500000     38.64300000     16.66200000
C      29.66400000     39.83900000     17.43400000
O      28.85000000     40.56500000     16.85900000
C      31.74400000     38.87900000     16.29900000
O      31.73700000     40.25700000     15.82400000
C      32.26000000     37.96900000     15.17100000
N      30.13200000     40.06900000     18.64200000
H      30.16200000     37.75100000     17.30200000
H      32.36600000     38.76400000     17.19900000
H      32.61800000     40.51000000     15.57300000
H      33.32000000     38.19100000     14.97600000
H      32.15500000     36.91600000     15.47300000
H      31.67400000     38.14900000     14.25800000
H      30.85500000     39.48300000     19.00900000
H      29.62730000     38.48370000     15.75240000
H      29.77730000     40.81960000     19.19940000
