18
pbedef2svp=-326.48944351387 b3lypdef2svp=-326.70367512701 b3lypvdz=-326.95448150607
C      21.65600000     26.84700000      5.24000000
C      21.12700000     28.24000000      5.57400000
O      19.95800000     28.46500000      5.84200000
C      21.63100000     26.64200000      3.73100000
C      20.21000000     26.42300000      3.17500000
C      20.26800000     26.58900000      1.65600000
N      22.09900000     29.16300000      5.60500000
H      22.70900000     26.81500000      5.55600000
H      22.06200000     27.53200000      3.24900000
H      22.24200000     25.76100000      3.48700000
H      19.86200000     25.41000000      3.42700000
H      19.52200000     27.16500000      3.60600000
H      20.17600000     27.66100000      1.42700000
H      21.24600000     26.22300000      1.31100000
H      23.03200000     28.85400000      5.42200000
H      21.09940000     26.09800000      5.82240000
H      19.48750000     26.05310000      1.09590000
H      21.96560000     30.13540000      5.79670000
