13
pbedef2svp=-323.09788237839 b3lypdef2svp=-323.30020183713 b3lypvdz=-323.55616629129
O      28.44900000     20.67400000      8.36000000
C      27.81900000     20.60900000      7.31600000
O      29.93000000     16.47700000     10.60600000
N      29.59900000     18.59900000      9.82800000
C      28.05400000     16.83500000      9.21000000
C      29.25800000     17.31800000      9.98400000
H      28.28810000     20.84830000      6.35030000
H      26.76820000     20.28460000      7.29260000
H      29.07000000     19.20900000      9.23800000
H      27.36300000     16.33700000      9.90600000
H      30.40390000     18.92440000     10.32420000
H      27.53620000     17.67480000      8.72360000
H      28.39370000     16.09990000      8.46550000
