12
pbedef2svp=-339.15571123312
N      21.67400000     30.03400000      8.19100000
C      21.46600000     30.95300000      7.26100000
O      21.06600000     32.11200000      7.53300000
N      20.92400000     25.86200000      6.00600000
C      20.82200000     25.91400000      7.33200000
O      21.32300000     26.83000000      8.00800000
H      22.02400000     29.14200000      7.90400000
H      21.50030000     30.18320000      9.16440000
H      21.78930000     30.66710000      6.24920000
H      20.47700000     25.11200000      5.51900000
H      21.43000000     26.54290000      5.47650000
H      20.28940000     25.09390000      7.83580000
