13
pbedef2svp=-323.03334505864 b3lypdef2svp=-323.23724961757 b3lypvdz=-323.49442564942
C      27.33100000     29.31700000     20.36400000
O      27.10100000     28.34600000     21.09700000
N      26.46500000     25.68900000     21.83300000
C      26.82600000     24.52100000     21.01200000
C      27.99400000     23.78100000     21.64300000
O      28.90400000     24.44400000     22.09800000
H      28.36380000     29.50180000     20.03350000
H      26.59060000     30.07400000     20.06620000
H      26.78200000     26.59400000     21.54900000
H      25.96700000     23.83400000     21.00400000
H      25.91410000     25.61040000     22.66390000
H      26.98190000     24.85930000     19.97700000
H      27.95110000     22.68180000     21.64710000
