14
pbedef2svp=-307.04211361577
C      29.54200000     39.02000000     10.65300000
C      30.49400000     38.26100000      9.72900000
O      30.84900000     38.85000000      8.70600000
C      27.69100000     37.31500000     14.14300000
C      28.46900000     37.47500000     15.42000000
O      28.21300000     36.75300000     16.41100000
H      29.47700000     38.47800000     11.60800000
H      30.00500000     40.00260000     10.82670000
H      28.53770000     39.04040000     10.20460000
H      30.74240000     37.23280000     10.03100000
H      28.13900000     37.93800000     13.35500000
H      27.73490000     36.25610000     13.84830000
H      26.63020000     37.58090000     14.26120000
H      29.24750000     38.25190000     15.44120000
