19
pbedef2svp=-347.44868533173
C      34.50900000     26.07700000     19.36000000
C      34.34300000     26.44500000     17.89800000
O      33.54400000     23.08600000     20.88300000
C      34.17400000     22.12900000     21.35400000
C      31.28800000     22.20100000     16.41700000
C      32.77600000     22.51900000     16.57700000
O      33.23300000     23.65900000     16.38400000
H      34.78800000     25.01600000     19.43700000
H      35.30300000     26.69700000     19.80200000
H      34.05700000     27.50400000     17.81100000
H      33.56400000     25.81600000     17.44200000
H      33.57070000     26.24550000     19.90870000
H      35.30370000     26.27560000     17.38970000
H      33.78490000     21.10330000     21.27270000
H      35.12210000     22.29880000     21.88520000
H      30.85300000     22.93800000     15.72600000
H      31.15610000     21.19280000     15.99730000
H      30.74430000     22.27110000     17.37060000
H      33.42330000     21.68640000     16.88970000
