18
pbedef2svp=-363.49435686949
C      24.24100000     20.43600000     12.85700000
O      23.26400000     20.95100000     13.32900000
C      21.18400000     24.26300000     11.69000000
C      22.65000000     24.51600000     12.17200000
C      21.46000000     18.73700000     16.16300000
O      20.49700000     18.50600000     16.90000000
N      21.84600000     19.95400000     15.90500000
H      25.21610000     20.92100000     13.01190000
H      24.24020000     19.45520000     12.35890000
H      20.53700000     25.08800000     12.02200000
H      23.21600000     23.58600000     12.01300000
H      20.84000000     23.30620000     12.10980000
H      21.13070000     24.15350000     10.59680000
H      22.65850000     24.73010000     13.25090000
H      23.16720000     25.32030000     11.62840000
H      22.72300000     20.07900000     15.44100000
H      22.14790000     17.94780000     15.82550000
H      21.32120000     20.77160000     16.14170000
