13
pbedef2svp=-174.05912675263 b3lypdef2svp=-174.18797107249 b3lypvdz=-174.32089358945
C      24.34800000     39.29600000     14.64200000
C      23.86500000     40.72300000     14.74900000
C      22.67400000     36.62700000     17.20000000
N      22.04500000     35.45500000     17.17300000
H      23.94200000     38.86500000     13.71500000
H      23.96100000     38.73700000     15.50600000
H      24.32800000     41.20500000     15.62300000
H      24.13900000     41.27500000     13.83800000
H      25.44210000     39.18420000     14.62280000
H      22.77110000     40.72080000     14.86500000
H      22.29600000     37.56400000     16.82000000
H      23.65000000     36.46560000     17.68100000
H      22.61570000     34.76560000     17.61920000
