9
pbedef2svp=-208.79353907552 b3lypdef2svp=-208.92295628741 b3lypvdz=-209.08660586179
N      37.63300000     26.54300000     11.86700000
C      37.47100000     27.39100000     10.66800000
C      38.72800000     26.59100000     12.61100000
O      39.70400000     27.34600000     12.27700000
H      36.89700000     25.91700000     12.12400000
H      38.32600000     27.22700000      9.99500000
H      37.44960000     28.45600000     10.94230000
H      36.54750000     27.15040000     10.12100000
H      38.77580000     25.98950000     13.53070000
