14
pbedef2svp=-303.2085999859
C      36.33400000     31.74200000     23.08700000
O      35.57400000     32.61800000     23.48300000
C      35.61200000     30.57700000     28.04400000
N      35.04000000     30.25200000     26.73000000
C      34.33800000     29.10300000     26.65000000
N      34.01400000     28.65700000     25.45700000
H      37.33660000     31.66700000     23.53330000
H      36.05440000     31.00370000     22.32100000
H      36.60000000     30.10400000     28.14300000
H      34.94700000     30.20600000     28.83800000
H      35.16400000     30.85000000     25.93800000
H      33.57700000     27.75900000     25.49900000
H      35.71550000     31.66880000     28.12970000
H      34.14820000     28.54850000     27.58080000
