16
pbedef2svp=-159.27773235292 b3lypdef2svp=-159.40743356653 b3lypvdz=-159.52273140686
C      27.96700000     28.08700000     10.41700000
C      27.81000000     28.74800000      8.99900000
C      26.31000000     30.59400000     14.96700000
C      26.29000000     29.48000000     13.96000000
H      29.03100000     27.89400000     10.61600000
H      27.56800000     28.76600000     11.18400000
H      27.41100000     27.13800000     10.44300000
H      28.22100000     28.06200000      8.24300000
H      28.37700000     29.69100000      8.98500000
H      26.76150000     28.96400000      8.74580000
H      27.23500000     31.16400000     14.79900000
H      26.34200000     30.12800000     15.96300000
H      26.46700000     29.91100000     12.96300000
H      25.48190000     31.31800000     14.97630000
H      27.07870000     28.73780000     14.15240000
H      25.30590000     28.98870000     13.95420000
