10
pbedef2svp=-192.74111147675 b3lypdef2svp=-192.86819478097 b3lypvdz=-193.01946193233
O      43.66600000     28.26200000      9.53900000
C      41.71800000     30.02200000     10.64300000
C      41.39800000     28.78000000      9.81000000
C      42.62600000     28.55700000      8.92800000
H      42.79800000     30.00900000     10.85200000
H      41.23000000     27.91100000     10.46300000
H      40.50500000     28.95100000      9.19100000
H      41.18550000     29.91510000     11.59960000
H      41.48610000     30.97850000     10.15170000
H      42.45250000     28.78280000      7.86550000
