12
pbedef2svp=-247.98199536252 b3lypdef2svp=-248.1411316597 b3lypvdz=-248.33484992787
N      27.51000000     17.68900000     15.95400000
C      27.57400000     18.19200000     14.56300000
C      26.48200000     19.28000000     14.43200000
O      25.60900000     19.38800000     15.28700000
C      27.29900000     17.05500000     13.53300000
H      26.75900000     17.07400000     16.19600000
H      28.56000000     18.63600000     14.36100000
H      27.28300000     17.48700000     12.52200000
H      28.17060000     17.92570000     16.66650000
H      26.56800000     19.93400000     13.55170000
H      26.28680000     16.72790000     13.81300000
H      27.97910000     16.19060000     13.55110000
