16
pbedef2svp=-325.2141380254 b3lypdef2svp=-325.42455885998 b3lypvdz=-325.67820798621
N      21.84600000     19.95400000     15.90500000
C      21.07900000     21.14900000     16.25100000
C      20.14200000     21.59000000     15.14900000
O      19.49900000     22.64500000     15.32100000
C      22.08500000     22.25400000     16.58100000
C      22.94500000     21.95100000     17.78500000
C      24.27200000     21.54400000     17.64400000
H      22.72300000     20.07900000     15.44100000
H      20.48400000     20.94600000     17.15300000
H      22.74300000     22.39600000     15.71100000
H      21.52900000     23.18300000     16.77600000
H      24.69800000     21.42900000     16.65800000
H      21.54970000     19.01970000     16.10310000
H      20.01740000     20.99970000     14.22920000
H      22.54370000     22.11370000     18.79620000
H      24.88530000     21.34030000     18.53410000
