8
pbedef2svp=-79.63642747002 b3lypdef2svp=-79.70149496388 b3lypvdz=-79.75923561491
C      31.42200000     43.94000000     17.55300000
C      32.97900000     43.91800000     17.44500000
H      31.15100000     44.66200000     18.33700000
H      33.35300000     44.93600000     17.26300000
H      31.10650000     42.93780000     17.87880000
H      30.93200000     44.24190000     16.61560000
H      33.12510000     43.28030000     16.56070000
H      33.46820000     43.48580000     18.33040000
