6
pbedef2svp=-78.40961860438 b3lypdef2svp=-78.471080942 b3lypvdz=-78.53072241393
C      24.51700000     21.47000000     20.03000000
C      25.05200000     21.28500000     18.77600000
H      26.07000000     20.94100000     18.66600000
H      23.48040000     21.81500000     20.15790000
H      25.09870000     21.33630000     20.95400000
H      24.43870000     21.48870000     17.88590000
