17
pbedef2svp=-288.44373920059
N      40.64200000     33.91600000     16.11200000
C      41.94900000     34.07600000     15.84200000
O      42.82900000     34.00000000     16.73900000
C      40.26900000     30.50800000     14.11500000
C      40.99600000     29.39900000     14.86500000
C      42.44500000     29.84800000     15.18200000
H      39.96500000     33.93300000     15.37700000
H      40.35930000     33.78010000     17.06150000
H      42.24370000     34.21960000     14.79200000
H      40.23000000     31.41000000     14.74400000
H      40.46600000     29.18400000     15.80400000
H      41.02200000     28.49200000     14.24300000
H      43.02100000     29.92200000     14.24800000
H      42.42600000     30.82900000     15.68000000
H      39.25060000     30.21550000     13.81960000
H      40.85770000     30.72260000     13.21090000
H      42.91390000     29.10660000     15.84570000
