6
pbedef2svp=-169.57170777067 b3lypdef2svp=-169.67327064109 b3lypvdz=-169.80800968175
C      38.36500000     29.33500000     24.15900000
O      37.68400000     29.39000000     25.22100000
N      38.41900000     30.37300000     23.34100000
H      38.91700000     30.30600000     22.47600000
H      38.86900000     28.41650000     23.82390000
H      37.95980000     31.22540000     23.59120000
