15
pbedef2svp=-378.32459943621 b3lypdef2svp=-378.55655323501 b3lypvdz=-378.85616837921
C      38.36500000     29.33500000     24.15900000
O      37.68400000     29.39000000     25.22100000
N      38.41900000     30.37300000     23.34100000
N      41.18900000     32.08500000     19.03100000
C      41.46100000     30.75100000     19.59400000
C      40.16800000     30.02600000     19.91800000
O      39.26400000     30.66200000     20.52100000
H      38.91700000     30.30600000     22.47600000
H      38.86900000     28.41650000     23.82390000
H      37.95980000     31.22540000     23.59120000
H      42.11200000     30.14800000     18.94400000
H      40.63190000     32.23030000     18.21340000
H      41.61300000     32.82380000     19.55480000
H      41.97880000     31.02680000     20.52450000
H      40.07650000     28.96140000     19.65690000
