13
pbedef2svp=-377.19203785322 b3lypdef2svp=-377.4153641614 b3lypvdz=-377.71283458917
O      23.57900000     31.32100000      9.55400000
N      22.24100000     31.87300000     11.24100000
C      21.46600000     30.95300000      7.26100000
O      21.06600000     32.11200000      7.53300000
N      21.67400000     30.03400000      8.19100000
C      21.41900000     30.25300000      9.62000000
C      22.50400000     31.22800000     10.13600000
H      21.34100000     31.75600000     11.66200000
H      22.02400000     29.14200000      7.90400000
H      20.41000000     30.65000000      9.80700000
H      22.90230000     32.47850000     11.68370000
H      21.78930000     30.66710000      6.24920000
H      21.57530000     29.29940000     10.14560000
