10
pbedef2svp=-155.63677033975 b3lypdef2svp=-155.74819685437 b3lypvdz=-155.86754441681
C      21.44700000     27.86900000     16.02600000
C      21.32500000     28.81300000     15.00500000
C      20.63800000     26.73500000     16.05300000
C      20.36900000     28.64800000     14.00100000
H      21.97400000     29.67600000     14.99200000
H      20.75100000     26.00800000     16.84400000
H      20.22700000     29.39700000     13.23600000
H      22.20570000     28.00520000     16.81080000
H      19.88410000     26.58120000     15.26690000
H      19.76570000     27.72830000     14.01650000
