16
pbedef2svp=-362.33858578269 b3lypdef2svp=-362.56793448472 b3lypvdz=-362.85323118822
N      22.09900000     29.16300000      5.60500000
C      21.65600000     26.84700000      5.24000000
C      21.12700000     28.24000000      5.57400000
O      19.95800000     28.46500000      5.84200000
C      26.85000000     29.02100000      3.89800000
C      26.10000000     29.25300000      5.20200000
O      24.86500000     29.02400000      5.33000000
H      23.03200000     28.85400000      5.42200000
H      22.70900000     26.81500000      5.55600000
H      21.96560000     30.13540000      5.79670000
H      21.09940000     26.09800000      5.82240000
H      21.63790000     26.69890000      4.15020000
H      27.91400000     28.87800000      4.13600000
H      26.47150000     28.10150000      3.42760000
H      26.76460000     29.84380000      3.17300000
H      26.72220000     29.58780000      6.04510000
