15
pbedef2svp=-287.26001847111 b3lypdef2svp=-287.44664590519 b3lypvdz=-287.66793288936
C      21.07900000     21.14900000     16.25100000
C      20.14200000     21.59000000     15.14900000
O      19.49900000     22.64500000     15.32100000
C      22.08500000     22.25400000     16.58100000
N      19.99300000     20.88400000     14.04900000
C      19.06500000     21.35200000     12.99900000
H      20.48400000     20.94600000     17.15300000
H      22.74300000     22.39600000     15.71100000
H      21.52900000     23.18300000     16.77600000
H      20.50600000     20.03400000     13.92400000
H      19.16200000     20.67100000     12.14100000
H      21.65630000     20.24960000     15.99060000
H      22.71140000     22.03330000     17.45790000
H      19.33720000     22.35760000     12.64600000
H      18.01610000     21.30240000     13.32660000
