7
pbedef2svp=-153.52319210677 b3lypdef2svp=-153.62301424063 b3lypvdz=-153.74499696549
C      31.92300000     20.43600000      8.75500000
O      32.49300000     19.37400000      8.45600000
C      31.15500000     20.51500000     10.04800000
H      30.22700000     21.08200000      9.88300000
H      31.76900000     21.02800000     10.80200000
H      31.84810000     21.28680000      8.06180000
H      30.90260000     19.50820000     10.41220000
