12
pbedef2svp=-247.98378231908 b3lypdef2svp=-248.14268483831 b3lypvdz=-248.33645194156
N      31.51000000     18.93600000     12.85200000
C      31.39800000     19.06400000     14.28600000
C      31.59300000     20.55300000     14.65500000
O      32.15900000     21.31100000     13.86100000
C      32.49200000     18.19300000     14.99500000
H      32.38900000     18.66700000     12.45900000
H      30.40500000     18.73500000     14.62700000
H      32.40300000     18.31600000     16.08500000
H      30.73940000     19.10690000     12.23800000
H      31.19710000     20.80870000     15.64890000
H      33.44980000     18.59970000     14.63820000
H      32.39220000     17.12890000     14.73480000
