13
pbedef2svp=-323.03812288787 b3lypdef2svp=-323.24176756137 b3lypvdz=-323.49913873264
C      30.45900000     40.66600000     12.13000000
O      30.25300000     39.99100000     13.13300000
N      29.42600000     38.43000000     15.44600000
C      30.22500000     38.64300000     16.66200000
C      29.66400000     39.83900000     17.43400000
O      28.85000000     40.56500000     16.85900000
H      30.98010000     41.62410000     12.27310000
H      30.21240000     40.39270000     11.09340000
H      29.59100000     38.99300000     14.63600000
H      30.16200000     37.75100000     17.30200000
H      28.71830000     37.72380000     15.42680000
H      31.28290000     38.80740000     16.40920000
H      30.05530000     40.03130000     18.44390000
