6
pbedef2svp=-169.57455013988 b3lypdef2svp=-169.67673917049 b3lypvdz=-169.81104971857
C      39.07600000     34.93100000     29.03100000
O      38.29700000     34.94600000     29.99600000
N      40.29400000     34.41200000     29.04500000
H      40.83900000     34.43500000     28.20700000
H      38.78120000     35.34360000     28.05480000
H      40.68740000     33.99760000     29.86570000
