22
pbedef2svp=-328.85954581428
C      36.19300000     27.05800000      9.91100000
C      36.15300000     25.62000000      9.40900000
C      33.28400000     30.50400000     14.55200000
C      34.22800000     30.63000000     13.31900000
N      34.73400000     25.82200000     14.94900000
C      34.44100000     26.09900000     13.68400000
O      34.88300000     27.09000000     13.09300000
H      35.33700000     27.21800000     10.58200000
H      36.11200000     27.73300000      9.04600000
H      36.87800000     25.50100000      8.59000000
H      36.41500000     24.94000000     10.23300000
H      37.11650000     27.29860000     10.45800000
H      35.14570000     25.37450000      9.04150000
H      32.24400000     30.40100000     14.20900000
H      33.56500000     29.61800000     15.14000000
H      33.37700000     31.40400000     15.17800000
H      33.94700000     31.51600000     12.73100000
H      34.13500000     29.73000000     12.69300000
H      35.26830000     30.73260000     13.66130000
H      34.36300000     24.99500000     15.37200000
H      35.32050000     26.42960000     15.48450000
H      33.78620000     25.37640000     13.17490000
