15
pbedef2svp=-378.39536383744 b3lypdef2svp=-378.6274142816 b3lypvdz=-378.92497997819
N      22.09900000     29.16300000      5.60500000
C      21.12700000     28.24000000      5.57400000
O      19.95800000     28.46500000      5.84200000
C      26.85000000     29.02100000      3.89800000
C      26.10000000     29.25300000      5.20200000
O      24.86500000     29.02400000      5.33000000
N      26.84900000     29.65600000      6.21700000
H      23.03200000     28.85400000      5.42200000
H      21.96560000     30.13540000      5.79670000
H      21.50810000     27.23660000      5.33340000
H      27.91400000     28.87800000      4.13600000
H      27.84300000     29.68800000      6.11500000
H      26.47150000     28.10150000      3.42760000
H      26.76460000     29.84380000      3.17300000
H      26.43290000     29.92850000      7.08450000
