12
pbedef2svp=-247.98841034065 b3lypdef2svp=-248.14725647368 b3lypvdz=-248.34121779985
N      35.13900000     21.62400000     14.66200000
C      35.59000000     21.94500000     13.30200000
C      35.23800000     23.38200000     12.92000000
O      36.06600000     24.10900000     12.33300000
C      35.06400000     20.95700000     12.25500000
H      34.42500000     20.93200000     14.76600000
H      36.68700000     21.87000000     13.28900000
H      35.45300000     19.95000000     12.46600000
H      33.96400000     20.93800000     12.28200000
H      35.49880000     22.05180000     15.49120000
H      34.21620000     23.68330000     13.19390000
H      35.40590000     21.28740000     11.26310000
