9
pbedef2svp=-208.75483290821 b3lypdef2svp=-208.88673184556 b3lypvdz=-209.05143518229
N      31.69700000     18.31100000     20.40600000
C      31.56800000     16.96200000     19.82500000
C      30.32000000     16.69800000     19.05100000
O      30.19800000     15.65700000     18.36600000
H      31.43900000     18.43200000     21.36400000
H      32.42200000     16.80400000     19.15000000
H      31.61200000     16.23500000     20.64900000
H      32.02520000     19.11280000     19.90650000
H      29.50830000     17.44010000     19.07170000
