12
pbedef2svp=-342.9350959393 b3lypdef2svp=-343.1465860062 b3lypvdz=-343.42160122367
C      26.48200000     19.28000000     14.43200000
O      25.60900000     19.38800000     15.28700000
C      23.46100000     17.33100000     16.74100000
C      24.18400000     16.01600000     16.61900000
O      25.30300000     15.89400000     17.15200000
O      23.57200000     15.10700000     15.97500000
H      27.25840000     18.50640000     14.52510000
H      26.56800000     19.93400000     13.55170000
H      24.21600000     18.13000000     16.70200000
H      22.96200000     17.34600000     17.72100000
H      24.10000000     14.31700000     15.96200000
H      22.70120000     17.55460000     15.97760000
