21
pbedef2svp=-311.57570849214
C      26.34400000     29.05000000      8.64500000
C      25.49100000     27.77100000      8.28700000
C      25.28800000     34.60900000      7.49900000
C      24.14700000     33.96600000      7.03800000
O      23.57900000     31.32100000      9.55400000
C      21.41900000     30.25300000      9.62000000
C      22.50400000     31.22800000     10.13600000
H      25.87900000     29.50700000      9.53100000
H      25.56300000     27.04000000      9.10600000
H      24.43900000     28.06000000      8.14500000
H      25.87600000     27.32100000      7.36000000
H      26.26570000     29.77390000      7.82050000
H      27.39250000     28.83400000      8.89820000
H      23.51900000     33.41800000      7.72500000
H      25.58500000     34.52800000      8.55500000
H      25.94760000     35.18220000      6.83090000
H      23.88440000     34.01700000      5.97100000
H      20.41000000     30.65000000      9.80700000
H      21.61010000     30.08890000      8.54920000
H      21.57530000     29.29940000     10.14560000
H      22.28250000     31.77120000     11.06650000
