14
pbedef2svp=-361.13204261828 b3lypdef2svp=-361.35169024422 b3lypvdz=-361.63753764141
C      32.77600000     22.51900000     16.57700000
O      33.23300000     23.65900000     16.38400000
N      33.54800000     21.52600000     16.95000000
C      35.03100000     21.72200000     17.06900000
C      35.61500000     22.19000000     15.75900000
O      36.53200000     23.04600000     15.72400000
C      35.66700000     20.38300000     17.44700000
H      33.14600000     20.63400000     17.15600000
H      35.24600000     22.46200000     17.85400000
H      35.07400000     19.98200000     18.28200000
H      35.55700000     19.72700000     16.57100000
H      31.70620000     22.29040000     16.46200000
H      35.21920000     21.71940000     14.84690000
H      36.72140000     20.31800000     17.75370000
