12
pbedef2svp=-193.9214884137
C      28.46900000     37.47500000     15.42000000
O      28.21300000     36.75300000     16.41100000
C      26.17900000     34.12700000     17.65000000
C      25.21400000     34.56500000     18.78000000
H      27.89990000     37.35800000     14.48590000
H      29.24750000     38.25190000     15.44120000
H      26.36900000     34.95900000     16.95600000
H      24.95100000     33.70000000     19.40600000
H      25.69000000     35.33700000     19.40200000
H      25.76500000     33.25010000     17.13070000
H      27.11220000     33.78430000     18.12090000
H      24.31050000     34.97140000     18.30190000
