11
pbedef2svp=-264.03560098454 b3lypdef2svp=-264.19715721211 b3lypvdz=-264.40373720901
N      26.33500000     27.77000000      3.25800000
C      26.85000000     29.02100000      3.89800000
C      26.10000000     29.25300000      5.20200000
O      24.86500000     29.02400000      5.33000000
N      26.84900000     29.65600000      6.21700000
H      25.55800000     27.80400000      2.63000000
H      27.91400000     28.87800000      4.13600000
H      27.84300000     29.68800000      6.11500000
H      26.77990000     26.89940000      3.46810000
H      26.76460000     29.84380000      3.17300000
H      26.43290000     29.92850000      7.08450000
