18
pbedef2svp=-309.40558531164
C      26.54100000     18.73200000      9.25100000
O      26.33300000     18.53600000     10.45700000
C      27.29900000     17.05500000     13.53300000
O      25.92500000     16.61100000     13.91300000
C      26.08400000     21.88800000     11.83300000
C      27.42600000     22.61600000     11.90200000
H      26.02170000     19.52920000      8.69890000
H      27.22310000     18.08900000      8.67540000
H      27.28300000     17.48700000     12.52200000
H      25.65000000     15.90600000     13.33900000
H      27.49310000     17.85740000     14.25990000
H      27.97910000     16.19060000     13.55110000
H      26.14900000     21.16800000     11.00400000
H      25.31800000     22.64300000     11.60300000
H      28.23400000     21.90500000     12.13000000
H      25.73480000     21.33280000     12.71610000
H      27.63490000     23.13470000     10.95470000
H      27.39290000     23.41200000     12.66050000
