16
pbedef2svp=-362.32703077752
C      26.54100000     18.73200000      9.25100000
O      26.33300000     18.53600000     10.45700000
N      27.36100000     17.95900000      8.55900000
C      29.21300000     19.69700000      5.50600000
C      29.72800000     19.75500000      4.06000000
C      28.75400000     20.06100000      2.97800000
O      27.54600000     19.99200000      2.98500000
H      27.51100000     18.13900000      7.58700000
H      26.02170000     19.52920000      8.69890000
H      27.83170000     17.19550000      9.00120000
H      30.07700000     19.54500000      6.16900000
H      28.53000000     18.83800000      5.59000000
H      30.51000000     20.52800000      4.02300000
H      30.17100000     18.77400000      3.83200000
H      28.67550000     20.59380000      5.84800000
H      29.25650000     20.37350000      2.05070000
