14
pbedef2svp=-361.14432065926 b3lypdef2svp=-361.36557347252 b3lypvdz=-361.65112906671
C      25.82900000     19.82500000      8.49400000
C      26.54100000     18.73200000      9.25100000
O      26.33300000     18.53600000     10.45700000
N      27.36100000     17.95900000      8.55900000
C      28.05400000     16.83500000      9.21000000
C      29.25800000     17.31800000      9.98400000
O      29.93000000     16.47700000     10.60600000
H      25.66900000     20.69300000      9.15000000
H      27.51100000     18.13900000      7.58700000
H      27.36300000     16.33700000      9.90600000
H      26.37750000     20.12180000      7.58790000
H      24.86060000     19.47400000      8.10810000
H      28.39370000     16.09990000      8.46550000
H      29.53900000     18.37370000      9.85540000
