9
pbedef2svp=-208.80251733402 b3lypdef2svp=-208.93258704401 b3lypvdz=-209.09628912125
N      37.19700000     35.39700000     27.51300000
C      35.16100000     34.17400000     26.89600000
C      36.67100000     34.29600000     27.08900000
O      37.30500000     33.23300000     26.79500000
H      36.61300000     36.17900000     27.72900000
H      34.63100000     34.92600000     27.50000000
H      38.18810000     35.46770000     27.62550000
H      34.98910000     34.33030000     25.82080000
H      34.84230000     33.15910000     27.17590000
