16
pbedef2svp=-362.27258901943
N      24.79000000     32.02100000     13.61800000
C      25.14900000     31.60900000     14.98000000
C      25.69800000     32.87600000     15.66900000
O      26.15800000     33.73000000     14.89400000
C      26.77200000     33.43600000      9.19700000
C      27.15100000     33.36200000     10.65000000
O      26.35000000     32.77800000     11.39500000
H      25.50600000     32.15100000     12.93200000
H      24.28500000     31.20800000     15.53000000
H      23.83250000     32.17270000     13.37280000
H      25.97710000     30.88500000     14.97070000
H      25.63210000     32.93510000     16.76540000
H      27.66100000     33.67200000      8.59400000
H      26.36600000     32.46180000      8.88710000
H      25.99930000     34.19790000      9.01690000
H      28.06890000     33.84290000     11.01910000
