14
pbedef2svp=-303.26366373432 b3lypdef2svp=-303.45399846227 b3lypvdz=-303.68876872946
C      21.46000000     18.73700000     16.16300000
O      20.49700000     18.50600000     16.90000000
N      21.84600000     19.95400000     15.90500000
C      21.07900000     21.14900000     16.25100000
N      22.99700000     17.97800000     14.36600000
C      22.41800000     17.63800000     15.69300000
H      22.72300000     20.07900000     15.44100000
H      20.48400000     20.94600000     17.15300000
H      23.99100000     18.00600000     14.25900000
H      21.81600000     16.72700000     15.56300000
H      20.39740000     21.46980000     15.44940000
H      21.80210000     21.94330000     16.48820000
H      22.41550000     18.17940000     13.57780000
H      23.17780000     17.41440000     16.45640000
