16
pbedef2svp=-358.48828437994 b3lypdef2svp=-358.70994953455 b3lypvdz=-358.98948057271
N      27.77700000     28.58500000     26.73900000
C      28.26200000     27.57600000     26.02000000
O      29.18900000     26.84000000     26.33500000
C      27.13200000     32.42300000     26.57400000
N      27.63000000     33.65600000     26.46100000
C      29.27100000     31.31400000     26.01600000
N      27.87500000     31.31700000     26.44300000
H      28.17600000     28.80100000     27.63000000
H      27.01300000     29.12700000     26.38800000
H      27.74850000     27.41670000     25.06040000
H      26.91600000     34.35400000     26.51200000
H      29.85100000     30.66900000     26.69200000
H      29.66200000     32.34100000     26.06300000
H      27.44700000     30.43800000     26.65100000
H      26.04450000     32.32100000     26.70400000
H      29.37330000     30.93820000     24.98730000
