21
pbedef2svp=-344.85422693659
C      30.52000000     22.30000000     17.76400000
C      29.00600000     22.04300000     17.44200000
N      29.34000000     17.59400000     19.07600000
C      28.10800000     17.43900000     18.27600000
N      31.23300000     21.09000000     21.45900000
C      29.94200000     21.10600000     21.24000000
O      29.47000000     20.67700000     20.19000000
H      30.88200000     21.52100000     18.45100000
H      28.90200000     21.00100000     17.10700000
H      28.43100000     22.19000000     18.36800000
H      31.06370000     22.22990000     16.81040000
H      30.74120000     23.29180000     18.18510000
H      28.57490000     22.69440000     16.66750000
H      29.44000000     18.40200000     19.65700000
H      27.85100000     16.37300000     18.19200000
H      30.07790000     16.91940000     19.05720000
H      28.30110000     17.84390000     17.27160000
H      27.25840000     17.97950000     18.71880000
H      31.54300000     21.39500000     22.36000000
H      31.93830000     20.80210000     20.81120000
H      29.26390000     21.50910000     22.00660000
