14
pbedef2svp=-249.16504721855 b3lypdef2svp=-249.33355207559 b3lypvdz=-249.52688931281
N      26.21400000     32.09700000      8.77100000
C      26.77200000     33.43600000      9.19700000
O      23.57900000     31.32100000      9.55400000
C      21.41900000     30.25300000      9.62000000
C      22.50400000     31.22800000     10.13600000
H      25.36900000     31.73600000      9.16600000
H      27.66100000     33.67200000      8.59400000
H      26.72330000     31.58690000      8.07790000
H      27.04930000     33.38190000     10.26010000
H      25.99930000     34.19790000      9.01690000
H      20.41000000     30.65000000      9.80700000
H      21.61010000     30.08890000      8.54920000
H      21.57530000     29.29940000     10.14560000
H      22.28250000     31.77120000     11.06650000
