16
pbedef2svp=-362.32775909159
N      20.71700000     22.96400000     12.26000000
C      19.44200000     22.74500000     12.51000000
O      18.57100000     23.61000000     12.28900000
C      25.59400000     21.10900000     13.07200000
C      24.24100000     20.43600000     12.85700000
O      23.26400000     20.95100000     13.32900000
C      26.08400000     21.88800000     11.83300000
H      21.38500000     22.24600000     12.45600000
H      21.02970000     23.83380000     11.87830000
H      19.16980000     21.73940000     12.86300000
H      25.51600000     21.80500000     13.92000000
H      26.14900000     21.16800000     11.00400000
H      25.31800000     22.64300000     11.60300000
H      26.33400000     20.32790000     13.30050000
H      24.24020000     19.45520000     12.35890000
H      27.04990000     22.41200000     11.88270000
