7
pbedef2svp=-95.63873670397 b3lypdef2svp=-95.70821631831 b3lypvdz=-95.77958581674
N      26.46500000     25.68900000     21.83300000
C      26.82600000     24.52100000     21.01200000
H      26.78200000     26.59400000     21.54900000
H      25.96700000     23.83400000     21.00400000
H      25.91410000     25.61040000     22.66390000
H      27.67130000     23.98540000     21.46870000
H      26.98190000     24.85930000     19.97700000
