13
pbedef2svp=-265.2178307153 b3lypdef2svp=-265.3888404427 b3lypvdz=-265.5945596283
N      25.62100000     32.94500000     16.95000000
C      26.17900000     34.12700000     17.65000000
N      23.14100000     29.18700000     19.24100000
C      24.10100000     30.14900000     19.19600000
O      24.19600000     30.94800000     18.28700000
H      25.18900000     32.20800000     17.47000000
H      26.36900000     34.95900000     16.95600000
H      25.68090000     32.89130000     15.95320000
H      27.11220000     33.78430000     18.12090000
H      25.49380000     34.43800000     18.45240000
H      23.12400000     28.54900000     20.01100000
H      22.45120000     29.10210000     18.52200000
H      24.77440000     30.16420000     20.06570000
