5
pbedef2svp=-40.4134317739 b3lypdef2svp=-40.45026229503 b3lypvdz=-40.47880752945
C      32.97900000     43.91800000     17.44500000
H      33.35300000     44.93600000     17.26300000
H      31.88170000     43.93350000     17.52110000
H      33.12510000     43.28030000     16.56070000
H      33.46820000     43.48580000     18.33040000
