7
pbedef2svp=-95.63928192977 b3lypdef2svp=-95.70881311123 b3lypvdz=-95.78011151003
N      34.00700000     23.74500000     13.25000000
C      33.53300000     25.09700000     12.97800000
H      33.39700000     23.08600000     13.69000000
H      33.61300000     25.28200000     11.89700000
H      34.93590000     23.47110000     13.00100000
H      34.18780000     25.81960000     13.48710000
H      32.47480000     25.21190000     13.25530000
