14
pbedef2svp=-249.16425462779 b3lypdef2svp=-249.33278187821 b3lypvdz=-249.52577167506
N      31.51000000     18.93600000     12.85200000
C      31.39800000     19.06400000     14.28600000
C      27.57400000     18.19200000     14.56300000
C      26.48200000     19.28000000     14.43200000
O      25.60900000     19.38800000     15.28700000
H      32.38900000     18.66700000     12.45900000
H      30.40500000     18.73500000     14.62700000
H      30.73940000     19.10690000     12.23800000
H      31.53670000     20.12320000     14.54850000
H      32.16550000     18.45290000     14.78340000
H      28.56000000     18.63600000     14.36100000
H      27.52640000     17.81830000     15.59650000
H      27.37990000     17.38960000     13.83610000
H      26.56800000     19.93400000     13.55170000
