8
pbedef2svp=-79.6337450932 b3lypdef2svp=-79.69893755546 b3lypvdz=-79.75655141214
C      24.46900000     19.33200000      7.95200000
C      24.29900000     20.13400000      6.70400000
H      24.49800000     18.25500000      7.73000000
H      23.65900000     19.53700000      8.66800000
H      23.56000000     19.67000000      6.03400000
H      23.98900000     21.16400000      6.93600000
H      25.43740000     19.68300000      8.33790000
H      25.30350000     20.11550000      6.25610000
