18
pbedef2svp=-363.49699570265
C      30.49100000     19.16200000     12.04000000
O      29.36700000     19.52300000     12.44100000
C      27.29900000     17.05500000     13.53300000
C      28.23600000     15.86400000     13.55800000
N      24.24000000     19.23300000     12.24600000
C      24.24100000     20.43600000     12.85700000
O      23.26400000     20.95100000     13.32900000
H      30.71360000     19.10430000     10.96430000
H      31.33860000     18.97400000     12.71540000
H      27.28300000     17.48700000     12.52200000
H      27.93200000     15.14100000     12.78700000
H      29.26400000     16.20200000     13.35900000
H      28.19300000     15.38400000     14.54700000
H      27.49310000     17.85740000     14.25990000
H      26.28680000     16.72790000     13.81300000
H      25.09100000     18.79700000     11.95400000
H      23.35340000     18.79510000     12.09710000
H      25.21610000     20.92100000     13.01190000
