17
pbedef2svp=-197.32114657298 b3lypdef2svp=-197.46898893479 b3lypvdz=-197.61407401138
C      25.03400000     30.17000000     20.40100000
C      24.63900000     31.42600000     21.28600000
C      25.64600000     31.67000000     22.42100000
C      23.18100000     31.30900000     21.82400000
C      25.77800000     30.43600000     23.35600000
H      24.85900000     29.26400000     21.00000000
H      24.67100000     32.30400000     20.62400000
H      26.63000000     31.89000000     21.98200000
H      25.30900000     32.53200000     23.01600000
H      22.94200000     32.19400000     22.43200000
H      22.48200000     31.24600000     20.97700000
H      23.09000000     30.40400000     22.44300000
H      26.50600000     30.65400000     24.15100000
H      24.80000000     30.21100000     23.80600000
H      26.12100000     29.56900000     22.77200000
H      26.09140000     30.21680000     20.10160000
H      24.36060000     30.15480000     19.53130000
