17
pbedef2svp=-288.43540898808 b3lypdef2svp=-288.63056647485 b3lypvdz=-288.85181816405
N      34.93000000     34.38400000     25.45100000
C      34.23900000     35.35300000     24.97900000
O      33.70700000     36.19700000     25.72800000
C      29.47200000     35.18100000     23.49800000
C      29.82100000     35.95700000     24.76500000
C      28.04900000     35.45400000     23.07100000
H      35.33500000     33.73400000     24.80800000
H      35.08630000     34.24190000     26.42840000
H      34.17030000     35.43990000     23.88460000
H      29.51300000     34.11600000     23.77100000
H      29.05300000     35.77400000     25.53100000
H      30.80000000     35.62400000     25.14100000
H      29.86200000     37.03200000     24.53700000
H      27.37300000     35.30100000     23.92600000
H      27.96500000     36.49300000     22.71900000
H      27.77200000     34.76700000     22.25700000
H      30.20040000     35.31700000     22.68500000
