13
pbedef2svp=-231.9738855053 b3lypdef2svp=-232.1297686574 b3lypvdz=-232.30961525018
C      31.22000000     27.34100000      4.27500000
C      31.44000000     26.07900000      5.08000000
O      32.57600000     25.80200000      5.46100000
C      31.82700000     27.26200000      2.89400000
C      31.36300000     28.41000000      1.96200000
H      30.13900000     27.52500000      4.18300000
H      32.92200000     27.30900000      2.98900000
H      31.53900000     26.30300000      2.43900000
H      30.27100000     28.49200000      2.06200000
H      31.83500000     29.33600000      2.32200000
H      31.67060000     28.12700000      4.89880000
H      30.50170000     25.56340000      5.33240000
H      31.58880000     28.32280000      0.88900000
