19
pbedef2svp=-310.42611503179 b3lypdef2svp=-310.63529991182 b3lypvdz=-310.87411533812
C      30.92500000     34.30400000     17.75300000
C      32.34500000     34.18300000     18.35800000
C      32.55500000     32.78300000     18.87000000
C      33.36100000     34.49100000     17.24500000
C      29.80100000     34.14500000     18.82900000
C      30.05200000     35.04200000     20.00400000
O      30.10500000     36.30500000     19.78800000
H      30.79800000     33.52100000     16.99100000
H      30.82500000     35.29300000     17.28200000
H      32.46000000     34.90800000     19.17700000
H      33.56400000     32.69700000     19.30000000
H      31.80600000     32.56000000     19.64400000
H      32.44800000     32.06900000     18.04000000
H      34.38200000     34.41200000     17.64800000
H      33.23400000     33.77100000     16.42300000
H      33.19300000     35.51100000     16.86800000
H      29.80100000     33.10000000     19.17200000
H      28.83900000     34.37270000     18.34650000
H      30.11320000     34.60920000     21.01340000
