6
pbedef2svp=-169.56887696659 b3lypdef2svp=-169.67062561657 b3lypvdz=-169.80503274756
N      20.29100000     24.87500000      9.50700000
C      21.11000000     24.11100000     10.17300000
O      21.84100000     23.19800000      9.68600000
H      19.77500000     25.56800000     10.01100000
H      20.15030000     24.80670000      8.51930000
H      21.16330000     24.22050000     11.26620000
