10
pbedef2svp=-283.85441664148
C      23.04600000     27.08700000     22.91300000
O      23.38300000     27.62700000     21.87000000
N      19.81000000     29.37800000     18.57800000
C      20.83500000     28.62900000     18.90400000
O      20.82100000     27.73400000     19.74900000
H      21.97730000     26.87910000     23.07020000
H      23.74860000     26.78370000     23.70320000
H      19.96200000     30.14700000     17.95600000
H      18.88390000     29.21880000     18.92010000
H      21.75670000     28.93810000     18.38930000
