17
pbedef2svp=-342.49704047239 b3lypdef2svp=-342.71482002266 b3lypvdz=-342.97904646255
N      27.36100000     17.95900000      8.55900000
C      28.05400000     16.83500000      9.21000000
C      29.25800000     17.31800000      9.98400000
O      29.93000000     16.47700000     10.60600000
N      29.59900000     18.59900000      9.82800000
C      30.79600000     19.08300000     10.56600000
C      31.15500000     20.51500000     10.04800000
H      27.51100000     18.13900000      7.58700000
H      27.36300000     16.33700000      9.90600000
H      29.07000000     19.20900000      9.23800000
H      31.64900000     18.41000000     10.39300000
H      30.22700000     21.08200000      9.88300000
H      31.76900000     21.02800000     10.80200000
H      26.74090000     18.54350000      9.08230000
H      28.39370000     16.09990000      8.46550000
H      30.57340000     19.14070000     11.64170000
H      31.71600000     20.45730000      9.10360000
