12
pbedef2svp=-193.92105605765
C      25.88400000     39.13900000     14.61500000
C      26.21900000     37.68400000     14.30700000
C      29.66400000     39.83900000     17.43400000
O      28.85000000     40.56500000     16.85900000
H      26.30200000     39.41600000     15.59400000
H      26.30900000     39.79000000     13.83700000
H      25.70800000     37.42000000     13.36900000
H      25.81700000     37.07300000     15.12800000
H      24.78990000     39.25080000     14.63420000
H      27.27980000     37.41810000     14.18880000
H      30.06730000     38.97920000     16.87900000
H      30.05530000     40.03130000     18.44390000
