17
pbedef2svp=-342.48622708254 b3lypdef2svp=-342.70490030958 b3lypvdz=-342.96847116266
N      27.94200000     22.44800000     21.64800000
C      29.01500000     21.65700000     22.28800000
C      29.94200000     21.10600000     21.24000000
O      29.47000000     20.67700000     20.19000000
C      28.34800000     20.54000000     23.06600000
N      31.23300000     21.09000000     21.45900000
C      32.26200000     20.67000000     20.51400000
H      27.17100000     21.98000000     21.21600000
H      29.58400000     22.29400000     22.98200000
H      27.77300000     21.00700000     23.87900000
H      27.66000000     20.02800000     22.37700000
H      31.54300000     21.39500000     22.36000000
H      32.31500000     21.45700000     19.74700000
H      27.98100000     23.44720000     21.64430000
H      28.98750000     19.76900000     23.52050000
H      32.16500000     19.72420000     19.96070000
H      33.23390000     20.70250000     21.02820000
