14
pbedef2svp=-158.08700687061 b3lypdef2svp=-158.20781320115 b3lypvdz=-158.32407622991
C      21.24200000     25.51900000     22.39100000
C      19.76200000     25.07700000     22.45500000
C      19.63400000     23.88500000     21.53100000
C      18.79100000     24.22100000     20.31300000
H      21.51100000     25.66300000     21.33400000
H      21.85900000     24.71600000     22.82000000
H      19.49400000     24.79200000     23.48300000
H      19.10600000     25.89300000     22.11700000
H      20.63700000     23.57900000     21.19900000
H      19.16000000     23.05700000     22.07800000
H      19.25900000     25.03600000     19.74100000
H      18.68500000     23.33500000     19.66900000
H      21.46660000     26.45010000     22.93200000
H      17.80630000     24.53730000     20.68760000
