15
pbedef2svp=-233.16670203516
C      21.24200000     25.51900000     22.39100000
C      19.76200000     25.07700000     22.45500000
C      18.45300000     28.94100000     20.59100000
O      17.86000000     27.99400000     21.12800000
C      18.44300000     29.14300000     19.08300000
H      21.51100000     25.66300000     21.33400000
H      21.85900000     24.71600000     22.82000000
H      19.49400000     24.79200000     23.48300000
H      19.10600000     25.89300000     22.11700000
H      21.46660000     26.45010000     22.93200000
H      19.66900000     24.21070000     21.78350000
H      17.83100000     30.03000000     18.86300000
H      19.06070000     29.67380000     21.14210000
H      19.46170000     29.31810000     18.70670000
H      18.01730000     28.28560000     18.54110000
