11
pbedef2svp=-321.90520519659 b3lypdef2svp=-322.09821698309 b3lypvdz=-322.35464501369
C      41.25100000     37.94100000     32.58800000
O      41.10200000     38.52300000     31.50000000
N      40.94600000     38.47200000     33.75700000
C      40.37300000     39.81300000     33.94400000
C      40.03100000     39.99200000     35.43200000
O      40.86200000     39.57500000     36.25100000
H      41.11700000     37.92200000     34.57500000
H      41.10400000     40.57500000     33.63700000
H      39.46000000     39.91500000     33.33800000
H      41.68210000     36.93150000     32.65910000
H      39.06230000     40.46220000     35.65700000
