17
pbedef2svp=-197.27462022132 b3lypdef2svp=-197.42777132564 b3lypvdz=-197.57368811717
C      25.64600000     31.67000000     22.42100000
C      24.63900000     31.42600000     21.28600000
C      22.82400000     34.51400000     17.78200000
C      25.21400000     34.56500000     18.78000000
C      23.97800000     35.12100000     18.12600000
H      26.63000000     31.89000000     21.98200000
H      25.30900000     32.53200000     23.01600000
H      24.67100000     32.30400000     20.62400000
H      25.73940000     30.79640000     23.08290000
H      24.91290000     30.55510000     20.67240000
H      23.60990000     31.34340000     21.66570000
H      22.56500000     33.48000000     17.95500000
H      24.95100000     33.70000000     19.40600000
H      25.69000000     35.33700000     19.40200000
H      22.19620000     35.27230000     17.29120000
H      25.89920000     34.25400000     17.97760000
H      23.87700000     36.18030000     17.84720000
