5
pbedef2svp=-94.4277099593 b3lypdef2svp=-94.49205678024 b3lypvdz=-94.56723890582
C      27.60300000     14.42300000     20.65500000
N      27.47900000     13.73300000     19.53700000
H      28.09800000     12.94800000     19.51000000
H      27.07040000     15.35420000     20.89840000
H      28.34420000     14.05400000     21.37920000
