15
pbedef2svp=-233.14413505729 b3lypdef2svp=-233.30813086837 b3lypvdz=-233.48834938874
C      30.05200000     35.04200000     20.00400000
O      30.10500000     36.30500000     19.78800000
C      29.18300000     39.72200000     21.58100000
C      29.30800000     39.75000000     23.09500000
C      29.91900000     40.89000000     20.93800000
H      29.86790000     34.38390000     19.14200000
H      30.11320000     34.60920000     21.01340000
H      29.62800000     38.78600000     21.21200000
H      28.76600000     38.89400000     23.52400000
H      30.37000000     39.69000000     23.37600000
H      28.87900000     40.68700000     23.48100000
H      30.99700000     40.68600000     21.01500000
H      29.67500000     41.79500000     21.51400000
H      28.11290000     39.72130000     21.32630000
H      29.69490000     41.09830000     19.88140000
