19
pbedef2svp=-198.50604141465
C      34.73800000     30.87500000     21.47300000
C      34.87600000     30.23700000     20.06600000
C      32.34500000     34.18300000     18.35800000
C      32.55500000     32.78300000     18.87000000
C      33.36100000     34.49100000     17.24500000
H      34.44500000     31.92400000     21.31900000
H      35.08000000     29.16300000     20.18800000
H      33.92600000     30.37100000     19.52700000
H      35.70020000     30.86360000     22.00590000
H      33.90320000     30.37660000     21.98740000
H      35.68390000     30.68000000     19.46510000
H      32.46000000     34.90800000     19.17700000
H      33.56400000     32.69700000     19.30000000
H      31.80600000     32.56000000     19.64400000
H      32.44800000     32.06900000     18.04000000
H      34.38200000     34.41200000     17.64800000
H      33.23400000     33.77100000     16.42300000
H      33.19300000     35.51100000     16.86800000
H      31.33610000     34.26900000     17.92820000
