11
pbedef2svp=-263.98251850794 b3lypdef2svp=-264.14844194679 b3lypvdz=-264.35844431199
C      33.58900000     30.18900000     22.18100000
O      33.58000000     29.00900000     22.49900000
C      34.33800000     29.10300000     26.65000000
N      34.11000000     28.43700000     27.76800000
N      34.01400000     28.65700000     25.45700000
H      34.42380000     30.68740000     21.66660000
H      32.67090000     30.79060000     22.25370000
H      33.66800000     27.54100000     27.73500000
H      34.38000000     28.82900000     28.64700000
H      33.57700000     27.75900000     25.49900000
H      34.91050000     30.04000000     26.71520000
