12
pbedef2svp=-247.98812164623 b3lypdef2svp=-248.14659811126 b3lypvdz=-248.34073842601
N      38.88300000     30.11000000     13.71300000
C      40.26900000     30.50800000     14.11500000
C      41.09200000     30.80800000     12.85100000
O      41.82800000     31.80800000     12.68100000
C      40.99600000     29.39900000     14.86500000
H      38.52700000     29.20100000     13.93100000
H      40.23000000     31.41000000     14.74400000
H      40.46600000     29.18400000     15.80400000
H      41.02200000     28.49200000     14.24300000
H      38.32150000     30.77540000     13.22100000
H      41.01570000     30.02790000     12.07930000
H      42.02450000     29.71770000     15.09000000
