20
pbedef2svp=-273.5570649313
C      38.52800000     32.85400000     23.18200000
C      37.73800000     31.63700000     23.71200000
C      35.92600000     35.97900000     21.73700000
C      36.53300000     37.08700000     20.91700000
C      36.67100000     34.29600000     27.08900000
O      37.30500000     33.23300000     26.79500000
H      38.63400000     32.78100000     22.09000000
H      37.99600000     33.78200000     23.43800000
H      37.65300000     31.71100000     24.80600000
H      39.52240000     32.85400000     23.65240000
H      38.24310000     30.69940000     23.43680000
H      36.73540000     31.71200000     23.26570000
H      36.73600000     35.36100000     22.15200000
H      37.11000000     36.65500000     20.08600000
H      35.73300000     37.72600000     20.51500000
H      37.20000000     37.68900000     21.55100000
H      35.34590000     36.39700000     22.57290000
H      35.25950000     35.33270000     21.14700000
H      35.58340000     34.20810000     26.95000000
H      37.11890000     35.23360000     27.45010000
