14
pbedef2svp=-249.16586362297 b3lypdef2svp=-249.33350259927 b3lypvdz=-249.52685843092
C      34.73800000     30.87500000     21.47300000
N      36.00000000     30.86000000     22.17200000
C      38.81700000     28.02000000     19.88900000
C      38.42100000     28.04800000     21.34100000
O      37.21300000     28.03600000     21.70400000
H      34.44500000     31.92400000     21.31900000
H      36.65600000     30.13900000     21.94800000
H      33.90320000     30.37660000     21.98740000
H      34.83590000     30.42250000     20.47520000
H      36.25420000     31.53120000     22.86830000
H      38.00200000     28.46900000     19.30300000
H      39.74510000     28.57150000     19.67830000
H      39.01380000     27.01710000     19.48230000
H      39.22070000     28.08320000     22.09540000
