15
pbedef2svp=-374.51828665479 b3lypdef2svp=-374.7445779029 b3lypvdz=-375.03709645141
N      27.77700000     28.58500000     26.73900000
C      28.26200000     27.57600000     26.02000000
O      29.18900000     26.84000000     26.33500000
C      27.13200000     32.42300000     26.57400000
N      27.63000000     33.65600000     26.46100000
N      25.81000000     32.29900000     26.73200000
N      27.87500000     31.31700000     26.44300000
H      28.17600000     28.80100000     27.63000000
H      27.01300000     29.12700000     26.38800000
H      27.74850000     27.41670000     25.06040000
H      26.91600000     34.35400000     26.51200000
H      25.23100000     33.11400000     26.76200000
H      25.40000000     31.39100000     26.82000000
H      27.44700000     30.43800000     26.65100000
H      28.83130000     31.31490000     26.15050000
