16
pbedef2svp=-362.30857225402
C      36.67100000     34.29600000     27.08900000
O      37.30500000     33.23300000     26.79500000
C      39.06300000     28.06300000     23.69500000
C      38.36500000     29.33500000     24.15900000
O      37.68400000     29.39000000     25.22100000
N      38.41900000     30.37300000     23.34100000
C      37.73800000     31.63700000     23.71200000
H      35.58340000     34.20810000     26.95000000
H      37.11890000     35.23360000     27.45010000
H      38.35200000     27.23900000     23.85600000
H      38.91700000     30.30600000     22.47600000
H      37.65300000     31.71100000     24.80600000
H      39.29290000     28.08300000     22.61950000
H      39.97620000     27.79770000     24.24780000
H      36.73540000     31.71200000     23.26570000
H      38.30060000     32.50360000     23.33460000
