14
pbedef2svp=-249.21291734488
C      34.50900000     26.07700000     19.36000000
C      34.34300000     26.44500000     17.89800000
C      38.42100000     28.04800000     21.34100000
O      37.21300000     28.03600000     21.70400000
N      39.37400000     28.09000000     22.24000000
H      34.78800000     25.01600000     19.43700000
H      35.30300000     26.69700000     19.80200000
H      34.05700000     27.50400000     17.81100000
H      33.56400000     25.81600000     17.44200000
H      33.57070000     26.24550000     19.90870000
H      35.30370000     26.27560000     17.38970000
H      40.32700000     28.14100000     21.94300000
H      38.71040000     28.02750000     20.27990000
H      39.16500000     28.07190000     23.21770000
