10
pbedef2svp=-134.87236786651 b3lypdef2svp=-134.96966926945 b3lypvdz=-135.07020662079
C      29.41200000     30.79600000     24.59800000
C      29.27100000     31.31400000     26.01600000
N      27.87500000     31.31700000     26.44300000
H      28.75300000     31.37500000     23.93500000
H      29.12000000     29.73600000     24.57000000
H      29.85100000     30.66900000     26.69200000
H      29.66200000     32.34100000     26.06300000
H      27.44700000     30.43800000     26.65100000
H      30.45110000     30.89380000     24.25040000
H      27.32000000     32.14310000     26.54080000
