15
pbedef2svp=-378.39440826146 b3lypdef2svp=-378.62752552159 b3lypvdz=-378.92496078
N      24.24000000     19.23300000     12.24600000
C      25.59400000     21.10900000     13.07200000
C      24.24100000     20.43600000     12.85700000
O      23.26400000     20.95100000     13.32900000
C      26.54100000     18.73200000      9.25100000
O      26.33300000     18.53600000     10.45700000
N      27.36100000     17.95900000      8.55900000
H      25.09100000     18.79700000     11.95400000
H      25.51600000     21.80500000     13.92000000
H      23.35340000     18.79510000     12.09710000
H      26.33400000     20.32790000     13.30050000
H      25.94320000     21.66420000     12.18890000
H      27.51100000     18.13900000      7.58700000
H      26.02170000     19.52920000      8.69890000
H      27.83170000     17.19550000      9.00120000
