14
pbedef2svp=-361.14530578909 b3lypdef2svp=-361.36734293462 b3lypvdz=-361.65228432289
C      28.76200000     29.57300000     19.90600000
C      27.33100000     29.31700000     20.36400000
O      27.10100000     28.34600000     21.09700000
N      26.43600000     30.23200000     20.00400000
C      25.03400000     30.17000000     20.40100000
C      24.10100000     30.14900000     19.19600000
O      24.19600000     30.94800000     18.28700000
H      28.81600000     30.60900000     19.54100000
H      26.73800000     30.99700000     19.43500000
H      24.85900000     29.26400000     21.00000000
H      29.45240000     29.47150000     20.75640000
H      29.04300000     28.90990000     19.07460000
H      24.76010000     31.04090000     21.01460000
H      23.32440000     29.37080000     19.23240000
