5
pbedef2svp=-94.43100674943 b3lypdef2svp=-94.49534500801 b3lypvdz=-94.57080107076
C      34.33800000     29.10300000     26.65000000
N      34.01400000     28.65700000     25.45700000
H      33.57700000     27.75900000     25.49900000
H      34.91050000     30.04000000     26.71520000
H      34.14820000     28.54850000     27.58080000
