21
pbedef2svp=-311.55257853143
C      20.83500000     28.62900000     18.90400000
O      20.82100000     27.73400000     19.74900000
C      22.43700000     22.15700000     19.06500000
C      23.20400000     21.90700000     20.19200000
C      21.24200000     25.51900000     22.39100000
C      19.76200000     25.07700000     22.45500000
C      19.63400000     23.88500000     21.53100000
H      21.75670000     28.93810000     18.38930000
H      19.97480000     29.25760000     18.63040000
H      21.42600000     22.51800000     19.18200000
H      22.79100000     22.04900000     21.18000000
H      22.83830000     21.99430000     18.05380000
H      24.24060000     21.56200000     20.06410000
H      21.51100000     25.66300000     21.33400000
H      21.85900000     24.71600000     22.82000000
H      19.49400000     24.79200000     23.48300000
H      19.10600000     25.89300000     22.11700000
H      20.63700000     23.57900000     21.19900000
H      19.16000000     23.05700000     22.07800000
H      21.46660000     26.45010000     22.93200000
H      19.02350000     24.12830000     20.64890000
