22
pbedef2svp=-270.92387896063 b3lypdef2svp=-271.12552609056 b3lypvdz=-271.32747340355
C      30.83200000     23.69900000     18.35800000
C      30.52000000     22.30000000     17.76400000
C      33.20600000     26.31100000     20.12200000
N      33.45500000     25.91000000     21.54600000
N      31.23300000     21.09000000     21.45900000
C      32.26200000     20.67000000     20.51400000
H      30.30700000     23.81600000     19.31800000
H      31.91600000     23.79500000     18.51900000
H      30.49400000     24.47800000     17.65800000
H      30.88200000     21.52100000     18.45100000
H      31.06370000     22.22990000     16.81040000
H      29.45860000     22.11980000     17.53830000
H      32.92400000     27.37300000     20.07200000
H      32.40100000     25.69700000     19.69200000
H      32.62200000     26.04800000     22.08200000
H      33.71700000     24.94500000     21.58000000
H      34.14430000     26.14250000     19.57330000
H      31.54300000     21.39500000     22.36000000
H      32.31500000     21.45700000     19.74700000
H      30.24720000     21.10220000     21.29180000
H      32.16500000     19.72420000     19.96070000
H      33.23390000     20.70250000     21.02820000
