14
pbedef2svp=-249.16542201434 b3lypdef2svp=-249.3323432343 b3lypvdz=-249.52614118361
N      33.54800000     21.52600000     16.95000000
C      35.03100000     21.72200000     17.06900000
C      32.26200000     20.67000000     20.51400000
C      32.12800000     19.36400000     19.75000000
O      32.54600000     19.31700000     18.55800000
H      33.14600000     20.63400000     17.15600000
H      35.24600000     22.46200000     17.85400000
H      32.95960000     22.28290000     16.66570000
H      35.45680000     22.06320000     16.11390000
H      35.48830000     20.75920000     17.34080000
H      32.31500000     21.45700000     19.74700000
H      31.48610000     20.98670000     21.22650000
H      33.23390000     20.70250000     21.02820000
H      31.76700000     18.48210000     20.29940000
