13
pbedef2svp=-323.09130171132
O      43.66600000     28.26200000      9.53900000
C      41.39800000     28.78000000      9.81000000
C      42.62600000     28.55700000      8.92800000
N      37.63300000     26.54300000     11.86700000
C      38.72800000     26.59100000     12.61100000
O      39.70400000     27.34600000     12.27700000
H      41.23000000     27.91100000     10.46300000
H      40.50500000     28.95100000      9.19100000
H      41.62820000     29.67330000     10.40920000
H      42.45250000     28.78280000      7.86550000
H      36.89700000     25.91700000     12.12400000
H      37.52340000     27.11700000     11.05550000
H      38.77580000     25.98950000     13.53070000
