7
pbedef2svp=-95.63856575202 b3lypdef2svp=-95.70802965705 b3lypvdz=-95.77943340412
N      20.29100000     24.87500000      9.50700000
C      20.08100000     24.77300000      8.03300000
H      19.77500000     25.56800000     10.01100000
H      20.52200000     23.82600000      7.68800000
H      20.91950000     24.28870000     10.01810000
H      20.61360000     25.59310000      7.52920000
H      19.00400000     24.74610000      7.81060000
