16
pbedef2svp=-362.34051444426 b3lypdef2svp=-362.57053289763 b3lypvdz=-362.85575157618
C      31.56800000     16.96200000     19.82500000
C      30.32000000     16.69800000     19.05100000
O      30.19800000     15.65700000     18.36600000
N      29.34000000     17.59400000     19.07600000
C      29.01500000     21.65700000     22.28800000
C      29.94200000     21.10600000     21.24000000
O      29.47000000     20.67700000     20.19000000
H      32.42200000     16.80400000     19.15000000
H      31.61200000     16.23500000     20.64900000
H      29.44000000     18.40200000     19.65700000
H      31.66420000     17.96840000     20.25840000
H      28.50590000     17.48910000     18.53440000
H      29.58400000     22.29400000     22.98200000
H      28.21680000     22.24540000     21.81190000
H      28.53100000     20.84640000     22.85260000
H      31.02640000     21.09260000     21.42400000
