14
pbedef2svp=-195.11920437933 b3lypdef2svp=-195.2623772896 b3lypvdz=-195.41058748601
C      24.46900000     19.33200000      7.95200000
C      24.29900000     20.13400000      6.70400000
C      23.05900000     17.32600000     11.15400000
O      23.91400000     16.39500000     11.75500000
H      24.49800000     18.25500000      7.73000000
H      23.65900000     19.53700000      8.66800000
H      23.56000000     19.67000000      6.03400000
H      23.98900000     21.16400000      6.93600000
H      25.43740000     19.68300000      8.33790000
H      25.30350000     20.11550000      6.25610000
H      22.06600000     16.87100000     11.02100000
H      23.46700000     17.60900000     10.17200000
H      23.98400000     15.62600000     11.20200000
H      22.96230000     18.22670000     11.77810000
