11
pbedef2svp=-230.73495303373 b3lypdef2svp=-230.88542750791 b3lypvdz=-231.06670289182
C      22.43700000     22.15700000     19.06500000
C      25.05200000     21.28500000     18.77600000
C      23.20400000     21.90700000     20.19200000
C      24.51700000     21.47000000     20.03000000
O      25.24800000     21.30200000     21.19100000
H      21.42600000     22.51800000     19.18200000
H      26.07000000     20.94100000     18.66600000
H      22.79100000     22.04900000     21.18000000
H      26.12400000     21.00400000     20.97400000
H      22.83830000     21.99430000     18.05380000
H      24.43870000     21.48870000     17.88590000
