15
pbedef2svp=-287.21092048456 b3lypdef2svp=-287.39767725085 b3lypvdz=-287.62064924689
N      30.99100000     42.57100000     17.99800000
C      31.42200000     43.94000000     17.55300000
C      30.75500000     44.35100000     16.27700000
O      31.20700000     45.26800000     15.56600000
C      32.97900000     43.91800000     17.44500000
C      33.65700000     43.31900000     18.67200000
H      31.36100000     41.73700000     17.58800000
H      31.15100000     44.66200000     18.33700000
H      33.35300000     44.93600000     17.26300000
H      34.74800000     43.33300000     18.53200000
H      33.39400000     43.91000000     19.56100000
H      33.31800000     42.28100000     18.80800000
H      30.31060000     42.54650000     18.73040000
H      29.87810000     43.77600000     15.94460000
H      33.12510000     43.28030000     16.56070000
