8
pbedef2svp=-79.63890736383 b3lypdef2svp=-79.70421280949 b3lypvdz=-79.76183047026
C      17.86400000     27.97700000     18.34600000
C      18.44300000     29.14300000     19.08300000
H      16.84300000     27.78400000     18.70800000
H      17.83500000     28.20100000     17.27000000
H      18.48800000     27.08800000     18.51900000
H      17.83100000     30.03000000     18.86300000
H      19.46170000     29.31810000     18.70670000
H      18.45020000     28.99700000     20.17320000
