18
pbedef2svp=-272.38540301726
C      38.52800000     32.85400000     23.18200000
C      39.91900000     32.85400000     23.84000000
C      41.46100000     30.75100000     19.59400000
C      40.16800000     30.02600000     19.91800000
O      39.26400000     30.66200000     20.52100000
C      42.19500000     31.14200000     20.91300000
H      38.63400000     32.78100000     22.09000000
H      37.99600000     33.78200000     23.43800000
H      39.79500000     32.89900000     24.93200000
H      40.44000000     31.92400000     23.56800000
H      37.96540000     31.98740000     23.55940000
H      40.52860000     33.71070000     23.51670000
H      42.11200000     30.14800000     18.94400000
H      41.47600000     31.30900000     21.72900000
H      42.91200000     30.36200000     21.21000000
H      41.25790000     31.74700000     19.17360000
H      40.07650000     28.96140000     19.65690000
H      42.71490000     32.07470000     20.64900000
