8
pbedef2svp=-79.64028691391 b3lypdef2svp=-79.70556418824 b3lypvdz=-79.76323166304
C      30.41600000     28.91200000     17.98000000
C      30.73800000     27.69300000     17.12200000
H      31.24500000     29.08800000     18.68100000
H      31.66200000     27.87700000     16.55400000
H      30.87500000     26.81500000     17.77000000
H      29.90900000     27.50700000     16.42300000
H      29.49180000     28.72420000     18.54620000
H      30.26450000     29.81400000     17.36890000
