9
pbedef2svp=-208.80932042414 b3lypdef2svp=-208.93946581803 b3lypvdz=-209.10313916044
C      31.40900000     32.68000000      6.44600000
O      32.61900000     32.81200000      6.12500000
N      30.88400000     31.48500000      6.66600000
C      30.50500000     33.88400000      6.51200000
H      29.90500000     31.41600000      6.85800000
H      29.59500000     33.63500000      7.07700000
H      31.43200000     30.64880000      6.64730000
H      31.04940000     34.69580000      7.01660000
H      30.21620000     34.23900000      5.51170000
