13
pbedef2svp=-194.86223177129 b3lypdef2svp=-195.00039406827 b3lypvdz=-195.1485858854
C      21.44700000     27.86900000     16.02600000
C      21.32500000     28.81300000     15.00500000
C      20.36900000     28.64800000     14.00100000
C      19.59300000     27.46500000     14.02100000
C      22.49400000     28.05700000     17.10900000
H      21.97400000     29.67600000     14.99200000
H      20.22700000     29.39700000     13.23600000
H      18.91100000     27.27600000     13.20500000
H      23.42500000     28.39400000     16.63000000
H      22.66300000     27.08400000     17.59400000
H      20.80830000     26.97370000     16.04730000
H      19.65960000     26.73090000     14.83750000
H      22.22700000     28.78610000     17.88820000
