9
pbedef2svp=-208.75176401816 b3lypdef2svp=-208.88322680712 b3lypvdz=-209.04773538646
N      22.24100000     31.87300000     11.24100000
C      23.21200000     32.76200000     11.89100000
C      23.50900000     32.22400000     13.29000000
O      22.54400000     31.94200000     14.03400000
H      21.34100000     31.75600000     11.66200000
H      24.14700000     32.76300000     11.31200000
H      22.44230000     31.37920000     10.39500000
H      22.85770000     33.80140000     11.95590000
H      24.56230000     32.05710000     13.55970000
