16
pbedef2svp=-362.30394753921
C      28.46900000     37.47500000     15.42000000
O      28.21300000     36.75300000     16.41100000
C      25.69800000     32.87600000     15.66900000
O      26.15800000     33.73000000     14.89400000
N      25.62100000     32.94500000     16.95000000
C      26.17900000     34.12700000     17.65000000
C      25.21400000     34.56500000     18.78000000
H      27.89990000     37.35800000     14.48590000
H      29.24750000     38.25190000     15.44120000
H      25.18900000     32.20800000     17.47000000
H      26.36900000     34.95900000     16.95600000
H      24.95100000     33.70000000     19.40600000
H      25.69000000     35.33700000     19.40200000
H      25.30670000     31.97290000     15.17790000
H      27.11220000     33.78430000     18.12090000
H      24.31050000     34.97140000     18.30190000
