9
pbedef2svp=-208.75530424333 b3lypdef2svp=-208.88672383368 b3lypvdz=-209.05131727634
N      22.09900000     29.16300000      5.60500000
C      21.90700000     30.56300000      5.88100000
C      21.46600000     30.95300000      7.26100000
O      21.06600000     32.11200000      7.53300000
H      23.03200000     28.85400000      5.42200000
H      22.89500000     31.02900000      5.75500000
H      21.37400000     28.47460000      5.58190000
H      21.28200000     31.02960000      5.10540000
H      21.63880000     30.18940000      8.03370000
