15
pbedef2svp=-378.36725594167
C      36.08300000     30.19400000     17.87500000
O      35.04800000     29.70200000     17.39300000
N      37.22800000     30.12600000     17.23300000
C      38.81700000     28.02000000     19.88900000
C      40.16800000     30.02600000     19.91800000
O      39.26400000     30.66200000     20.52100000
N      40.05900000     28.75800000     19.60700000
H      37.27600000     29.67300000     16.34300000
H      38.05100000     30.52700000     17.63500000
H      36.03110000     30.68130000     18.85980000
H      38.00200000     28.46900000     19.30300000
H      38.52760000     28.04050000     20.95010000
H      39.01380000     27.01710000     19.48230000
H      41.10530000     30.55160000     19.68310000
H      40.71650000     28.18600000     19.11660000
