19
pbedef2svp=-343.67726066729
N      32.47800000     30.91700000     22.26900000
C      33.58900000     30.18900000     22.18100000
O      33.58000000     29.00900000     22.49900000
C      34.50900000     26.07700000     19.36000000
C      33.20600000     26.31100000     20.12200000
N      33.45500000     25.91000000     21.54600000
C      34.34300000     26.44500000     17.89800000
H      32.49800000     31.87600000     21.98800000
H      31.62410000     30.52410000     22.61040000
H      34.42380000     30.68740000     21.66660000
H      34.78800000     25.01600000     19.43700000
H      35.30300000     26.69700000     19.80200000
H      32.92400000     27.37300000     20.07200000
H      32.40100000     25.69700000     19.69200000
H      32.62200000     26.04800000     22.08200000
H      33.71700000     24.94500000     21.58000000
H      34.05700000     27.50400000     17.81100000
H      33.56400000     25.81600000     17.44200000
H      35.30370000     26.27560000     17.38970000
