10
pbedef2svp=-155.63685953344 b3lypdef2svp=-155.74854021199 b3lypvdz=-155.86791349824
C      21.32500000     28.81300000     15.00500000
C      20.36900000     28.64800000     14.00100000
C      19.67700000     26.53900000     15.05100000
C      19.59300000     27.46500000     14.02100000
H      21.97400000     29.67600000     14.99200000
H      20.22700000     29.39700000     13.23600000
H      19.01600000     25.68500000     15.08000000
H      18.91100000     27.27600000     13.20500000
H      21.42110000     28.06910000     15.80960000
H      20.43090000     26.69280000     15.83710000
