13
pbedef2svp=-377.19487289617 b3lypdef2svp=-377.41753423354 b3lypvdz=-377.71550232261
C      26.54100000     18.73200000      9.25100000
O      26.33300000     18.53600000     10.45700000
N      27.36100000     17.95900000      8.55900000
C      28.05400000     16.83500000      9.21000000
C      29.25800000     17.31800000      9.98400000
O      29.93000000     16.47700000     10.60600000
N      29.59900000     18.59900000      9.82800000
H      27.51100000     18.13900000      7.58700000
H      27.36300000     16.33700000      9.90600000
H      29.07000000     19.20900000      9.23800000
H      26.02170000     19.52920000      8.69890000
H      28.39370000     16.09990000      8.46550000
H      30.40390000     18.92440000     10.32420000
