7
pbedef2svp=-153.52418965887 b3lypdef2svp=-153.62481879445 b3lypvdz=-153.74631961844
C      29.72800000     19.75500000      4.06000000
C      28.75400000     20.06100000      2.97800000
O      27.54600000     19.99200000      2.98500000
H      30.51000000     20.52800000      4.02300000
H      30.17100000     18.77400000      3.83200000
H      29.35920000     19.71350000      5.09550000
H      29.25650000     20.37350000      2.05070000
