15
pbedef2svp=-233.15531120083
C      38.61500000     32.80100000      8.32000000
C      37.22000000     32.82200000      8.82700000
C      37.15600000     35.98500000     11.68800000
C      37.19200000     37.36100000     11.03300000
O      37.51900000     38.36000000     11.64500000
H      38.67800000     33.59500000      7.56100000
H      38.75200000     31.82100000      7.83900000
H      36.84100000     31.79300000      8.91200000
H      37.19200000     33.30600000      9.81400000
H      39.48140000     32.94120000      8.98310000
H      36.59760000     33.38850000      8.11870000
H      37.25300000     35.21500000     10.90800000
H      36.19400000     35.86100000     12.20700000
H      37.97230000     35.86190000     12.41500000
H      36.90210000     37.32510000      9.97250000
