15
pbedef2svp=-287.25306250921 b3lypdef2svp=-287.6606142956 b3lypvdz=-287.6606142956
C      29.60400000     43.50700000     13.39300000
O      29.21900000     43.98100000     12.30100000
N      30.56300000     42.62300000     13.49500000
C      31.19100000     42.01200000     12.33100000
C      32.67200000     41.71700000     12.50500000
C      33.28000000     41.08600000     11.22700000
H      30.87700000     42.35700000     14.40600000
H      31.04300000     42.64100000     11.44100000
H      33.20000000     42.65600000     12.72600000
H      32.80100000     41.01800000     13.34500000
H      32.75600000     40.14700000     10.99400000
H      33.17300000     41.78500000     10.38400000
H      29.14480000     43.83930000     14.33570000
H      30.66990000     41.05390000     12.18790000
H      34.34620000     40.87950000     11.40180000
