16
pbedef2svp=-362.34213117279 b3lypdef2svp=-362.57178526329 b3lypvdz=-362.856749846
O      29.93000000     16.47700000     10.60600000
N      29.59900000     18.59900000      9.82800000
C      28.05400000     16.83500000      9.21000000
C      29.25800000     17.31800000      9.98400000
O      28.44900000     20.67400000      8.36000000
C      28.46800000     20.94000000      5.98000000
C      27.81900000     20.60900000      7.31600000
H      29.07000000     19.20900000      9.23800000
H      27.36300000     16.33700000      9.90600000
H      30.40390000     18.92440000     10.32420000
H      27.53620000     17.67480000      8.72360000
H      28.39370000     16.09990000      8.46550000
H      27.69800000     21.22000000      5.24600000
H      29.15330000     21.77930000      6.16940000
H      29.00550000     20.04320000      5.63800000
H      26.76820000     20.28460000      7.29260000
