15
pbedef2svp=-378.36845748294
O      23.57900000     31.32100000      9.55400000
N      22.24100000     31.87300000     11.24100000
C      22.50400000     31.22800000     10.13600000
C      27.15100000     33.36200000     10.65000000
O      26.35000000     32.77800000     11.39500000
C      28.60500000     33.96500000     12.50300000
N      28.26000000     33.94300000     11.09600000
H      21.34100000     31.75600000     11.66200000
H      22.90230000     32.47850000     11.68370000
H      21.73270000     30.53490000      9.76920000
H      27.82500000     33.46000000     13.09200000
H      28.87600000     34.37900000     10.44000000
H      26.87370000     33.41610000      9.58690000
H      28.62840000     35.02800000     12.78510000
H      29.57720000     33.50110000     12.72570000
