16
pbedef2svp=-362.31556340762
C      24.18400000     16.01600000     16.61900000
O      25.30300000     15.89400000     17.15200000
C      31.56800000     16.96200000     19.82500000
C      30.32000000     16.69800000     19.05100000
O      30.19800000     15.65700000     18.36600000
N      29.34000000     17.59400000     19.07600000
C      28.10800000     17.43900000     18.27600000
H      23.65580000     16.97670000     16.70810000
H      23.65440000     15.22930000     16.06170000
H      32.42200000     16.80400000     19.15000000
H      31.61200000     16.23500000     20.64900000
H      29.44000000     18.40200000     19.65700000
H      27.85100000     16.37300000     18.19200000
H      31.66420000     17.96840000     20.25840000
H      28.30110000     17.84390000     17.27160000
H      27.25840000     17.97950000     18.71880000
