14
pbedef2svp=-249.16130787497
N      28.26000000     33.94300000     11.09600000
C      28.60500000     33.96500000     12.50300000
C      25.14900000     31.60900000     14.98000000
C      25.69800000     32.87600000     15.66900000
O      26.15800000     33.73000000     14.89400000
H      28.87600000     34.37900000     10.44000000
H      27.82500000     33.46000000     13.09200000
H      27.42560000     33.50580000     10.76040000
H      28.62840000     35.02800000     12.78510000
H      29.57720000     33.50110000     12.72570000
H      24.28500000     31.20800000     15.53000000
H      24.87990000     31.91780000     13.95910000
H      25.97710000     30.88500000     14.97070000
H      25.63210000     32.93510000     16.76540000
