9
pbedef2svp=-208.79689018393 b3lypdef2svp=-208.9271801092 b3lypvdz=-209.09031057047
N      31.51000000     18.93600000     12.85200000
C      31.39800000     19.06400000     14.28600000
C      30.49100000     19.16200000     12.04000000
O      29.36700000     19.52300000     12.44100000
H      32.38900000     18.66700000     12.45900000
H      30.40500000     18.73500000     14.62700000
H      31.53670000     20.12320000     14.54850000
H      32.16550000     18.45290000     14.78340000
H      30.71360000     19.10430000     10.96430000
