19
pbedef2svp=-343.67081965514
O      23.57900000     31.32100000      9.55400000
N      22.24100000     31.87300000     11.24100000
C      23.21200000     32.76200000     11.89100000
C      22.50400000     31.22800000     10.13600000
N      26.84900000     29.65600000      6.21700000
C      26.23500000     30.05800000      7.49700000
C      26.34400000     29.05000000      8.64500000
H      21.34100000     31.75600000     11.66200000
H      24.14700000     32.76300000     11.31200000
H      23.42580000     32.37470000     12.89810000
H      22.85770000     33.80140000     11.95590000
H      21.73270000     30.53490000      9.76920000
H      27.84300000     29.68800000      6.11500000
H      25.16500000     30.24200000      7.32000000
H      25.87900000     29.50700000      9.53100000
H      26.28340000     29.35170000      5.45050000
H      26.69170000     31.02500000      7.75460000
H      27.39250000     28.83400000      8.89820000
H      25.74960000     28.15870000      8.39550000
