15
pbedef2svp=-378.39219059162
N      20.71700000     22.96400000     12.26000000
C      19.44200000     22.74500000     12.51000000
O      18.57100000     23.61000000     12.28900000
N      24.24000000     19.23300000     12.24600000
C      25.59400000     21.10900000     13.07200000
C      24.24100000     20.43600000     12.85700000
O      23.26400000     20.95100000     13.32900000
H      21.38500000     22.24600000     12.45600000
H      21.02970000     23.83380000     11.87830000
H      19.16980000     21.73940000     12.86300000
H      25.09100000     18.79700000     11.95400000
H      25.51600000     21.80500000     13.92000000
H      23.35340000     18.79510000     12.09710000
H      26.33400000     20.32790000     13.30050000
H      25.94320000     21.66420000     12.18890000
