16
pbedef2svp=-362.33073746359 b3lypdef2svp=-362.55863302697 b3lypvdz=-362.84440620851
C      35.54100000     21.41800000     10.87100000
O      36.77200000     21.62300000     10.67600000
N      34.62800000     21.59500000      9.92000000
C      35.06400000     20.95700000     12.25500000
C      31.92300000     20.43600000      8.75500000
O      32.49300000     19.37400000      8.45600000
C      31.15500000     20.51500000     10.04800000
H      34.90700000     21.90100000      9.01000000
H      33.66300000     21.42200000     10.11500000
H      35.45300000     19.95000000     12.46600000
H      33.96400000     20.93800000     12.28200000
H      35.44150000     21.66610000     13.00640000
H      30.22700000     21.08200000      9.88300000
H      31.76900000     21.02800000     10.80200000
H      31.84810000     21.28680000      8.06180000
H      30.90260000     19.50820000     10.41220000
