7
pbedef2svp=-95.63762756604 b3lypdef2svp=-95.70703496927 b3lypvdz=-95.77849045614
N      30.99100000     42.57100000     17.99800000
C      31.42200000     43.94000000     17.55300000
H      31.36100000     41.73700000     17.58800000
H      31.15100000     44.66200000     18.33700000
H      30.31060000     42.54650000     18.73040000
H      30.93200000     44.24190000     16.61560000
H      32.51930000     43.92450000     17.47690000
