13
pbedef2svp=-269.05412997751
C      26.92600000     18.19100000     18.89200000
C      28.10800000     17.43900000     18.27600000
C      24.18400000     16.01600000     16.61900000
O      25.30300000     15.89400000     17.15200000
O      23.57200000     15.10700000     15.97500000
H      27.14900000     19.26800000     18.86300000
H      26.03200000     17.98500000     18.28500000
H      27.85100000     16.37300000     18.19200000
H      26.70840000     17.91140000     19.93340000
H      29.02550000     17.55440000     18.87180000
H      28.30110000     17.84390000     17.27160000
H      24.10000000     14.31700000     15.96200000
H      23.65580000     16.97670000     16.70810000
