16
pbedef2svp=-362.32238455296
N      31.23300000     21.09000000     21.45900000
C      29.94200000     21.10600000     21.24000000
O      29.47000000     20.67700000     20.19000000
C      31.28800000     22.20100000     16.41700000
C      32.77600000     22.51900000     16.57700000
O      33.23300000     23.65900000     16.38400000
C      30.52000000     22.30000000     17.76400000
H      31.54300000     21.39500000     22.36000000
H      31.93830000     20.80210000     20.81120000
H      29.26390000     21.50910000     22.00660000
H      30.85300000     22.93800000     15.72600000
H      30.88200000     21.52100000     18.45100000
H      31.15610000     21.19280000     15.99730000
H      33.42330000     21.68640000     16.88970000
H      29.45860000     22.11980000     17.53830000
H      30.74120000     23.29180000     18.18510000
