7
pbedef2svp=-153.52503997187 b3lypdef2svp=-153.62477852233 b3lypvdz=-153.74679262053
C      18.45300000     28.94100000     20.59100000
O      17.86000000     27.99400000     21.12800000
C      18.44300000     29.14300000     19.08300000
H      17.83100000     30.03000000     18.86300000
H      19.06070000     29.67380000     21.14210000
H      19.46170000     29.31810000     18.70670000
H      18.01730000     28.28560000     18.54110000
