9
pbedef2svp=-117.63929368796 b3lypdef2svp=-117.72789724585 b3lypvdz=-117.81651228083
C      22.08500000     22.25400000     16.58100000
C      22.94500000     21.95100000     17.78500000
C      22.43700000     22.15700000     19.06500000
H      22.74300000     22.39600000     15.71100000
H      21.52900000     23.18300000     16.77600000
H      21.42600000     22.51800000     19.18200000
H      21.36190000     21.45970000     16.34380000
H      23.99130000     21.63010000     17.67380000
H      23.04570000     21.95860000     19.95950000
