15
pbedef2svp=-287.20665694903 b3lypdef2svp=-287.39413915994 b3lypvdz=-287.61656655547
N      27.94200000     22.44800000     21.64800000
C      29.01500000     21.65700000     22.28800000
C      29.94200000     21.10600000     21.24000000
O      29.47000000     20.67700000     20.19000000
C      28.34800000     20.54000000     23.06600000
C      29.24700000     19.45600000     23.70500000
H      27.17100000     21.98000000     21.21600000
H      29.58400000     22.29400000     22.98200000
H      27.77300000     21.00700000     23.87900000
H      27.66000000     20.02800000     22.37700000
H      29.26900000     18.57400000     23.04800000
H      30.26600000     19.85500000     23.81800000
H      27.98100000     23.44720000     21.64430000
H      31.02640000     21.09260000     21.42400000
H      28.86580000     19.15900000     24.69320000
