14
pbedef2svp=-307.04837360934
C      26.82600000     24.52100000     21.01200000
C      27.99400000     23.78100000     21.64300000
O      28.90400000     24.44400000     22.09800000
C      27.55300000     27.35600000     24.69500000
C      28.26200000     27.57600000     26.02000000
O      29.18900000     26.84000000     26.33500000
H      25.96700000     23.83400000     21.00400000
H      26.55630000     25.39350000     21.62530000
H      26.98190000     24.85930000     19.97700000
H      27.95110000     22.68180000     21.64710000
H      28.02600000     26.52000000     24.15900000
H      27.62300000     28.26900000     24.08500000
H      26.49540000     27.11990000     24.88400000
H      27.86100000     28.41020000     26.61440000
