18
pbedef2svp=-326.4848962841 b3lypdef2svp=-326.69869769521 b3lypvdz=-326.94937345952
C      23.21200000     32.76200000     11.89100000
C      23.50900000     32.22400000     13.29000000
O      22.54400000     31.94200000     14.03400000
C      22.69900000     34.26700000     11.98500000
N      24.79000000     32.02100000     13.61800000
C      25.14900000     31.60900000     14.98000000
C      26.31000000     30.59400000     14.96700000
H      24.14700000     32.76300000     11.31200000
H      21.74500000     34.28200000     12.53300000
H      25.50600000     32.15100000     12.93200000
H      24.28500000     31.20800000     15.53000000
H      27.23500000     31.16400000     14.79900000
H      26.34200000     30.12800000     15.96300000
H      22.48450000     32.09600000     11.40400000
H      22.54660000     34.58290000     10.94240000
H      23.43720000     34.88740000     12.51420000
H      25.54030000     32.51210000     15.47110000
H      26.29540000     29.77810000     14.22940000
