10
pbedef2svp=-134.86177925861 b3lypdef2svp=-134.95843287458 b3lypvdz=-135.05939466779
C      24.29900000     20.13400000      6.70400000
C      25.71400000     20.10800000      6.07300000
N      26.55900000     20.22000000      7.28800000
H      23.56000000     19.67000000      6.03400000
H      23.98900000     21.16400000      6.93600000
H      25.90100000     19.16700000      5.53500000
H      25.87000000     20.95700000      5.39100000
H      24.42420000     19.54320000      7.62340000
H      27.51430000     20.51490000      7.30920000
H      26.06040000     19.95020000      8.11180000
