16
pbedef2svp=-159.27787234715
C      29.90300000     24.59000000      7.66500000
C      28.47600000     25.13500000      7.70500000
C      27.42600000     22.61600000     11.90200000
C      27.71800000     23.34100000     10.57800000
H      29.89100000     23.63600000      8.21200000
H      28.20500000     25.37800000      8.74300000
H      28.41300000     26.04300000      7.08700000
H      27.78300000     24.37600000      7.31300000
H      30.17450000     24.34680000      6.62710000
H      30.60400000     25.25220000      8.19420000
H      28.23400000     21.90500000     12.13000000
H      28.68700000     23.85800000     10.64800000
H      27.75200000     22.60800000      9.75900000
H      26.92400000     24.07600000     10.38000000
H      26.46010000     22.09200000     11.85230000
H      27.39290000     23.41200000     12.66050000
