16
pbedef2svp=-362.32625537134 b3lypdef2svp=-362.55356019231 b3lypvdz=-362.83979702382
N      30.12400000     34.53300000     21.19100000
C      29.80100000     34.14500000     18.82900000
C      30.05200000     35.04200000     20.00400000
O      30.10500000     36.30500000     19.78800000
C      31.20000000     30.32900000     22.78000000
C      30.21000000     30.50900000     21.65000000
O      29.97800000     31.72600000     21.26900000
H      29.93800000     33.55900000     21.31800000
H      29.80100000     33.10000000     19.17200000
H      30.36200000     35.09350000     21.98420000
H      28.83900000     34.37270000     18.34650000
H      30.59150000     34.25680000     18.07230000
H      31.35500000     29.25000000     22.92500000
H      32.13930000     30.76110000     22.40440000
H      30.94270000     30.76780000     23.75530000
H      29.78370000     29.62250000     21.15760000
