12
pbedef2svp=-342.92259938493
C      37.44100000     28.88200000     11.05200000
O      38.02000000     29.77200000     10.38200000
O      43.66600000     28.26200000      9.53900000
O      42.43000000     28.81200000      7.72800000
C      41.39800000     28.78000000      9.81000000
C      42.62600000     28.55700000      8.92800000
H      37.46240000     27.81700000     10.77770000
H      36.92150000     29.11950000     11.99210000
H      43.25100000     28.75500000      7.25300000
H      41.23000000     27.91100000     10.46300000
H      40.50500000     28.95100000      9.19100000
H      41.62820000     29.67330000     10.40920000
