11
pbedef2svp=-118.86630729656 b3lypdef2svp=-118.9593459378 b3lypvdz=-119.04627828111
C      29.90300000     24.59000000      7.66500000
C      28.47600000     25.13500000      7.70500000
C      30.28800000     24.24500000      6.19300000
H      29.89100000     23.63600000      8.21200000
H      28.20500000     25.37800000      8.74300000
H      28.41300000     26.04300000      7.08700000
H      27.78300000     24.37600000      7.31300000
H      31.28700000     23.78400000      6.19600000
H      30.60400000     25.25220000      8.19420000
H      30.30460000     25.16000000      5.58270000
H      29.56540000     23.51590000      5.79770000
