14
pbedef2svp=-307.02653865576
C      30.05200000     35.04200000     20.00400000
O      30.10500000     36.30500000     19.78800000
C      31.74400000     38.87900000     16.29900000
C      30.22500000     38.64300000     16.66200000
C      29.66400000     39.83900000     17.43400000
O      28.85000000     40.56500000     16.85900000
H      29.86790000     34.38390000     19.14200000
H      30.11320000     34.60920000     21.01340000
H      32.36600000     38.76400000     17.19900000
H      30.16200000     37.75100000     17.30200000
H      31.73870000     39.91890000     15.94050000
H      32.11290000     38.22830000     15.49250000
H      29.62730000     38.48370000     15.75240000
H      30.05530000     40.03130000     18.44390000
