7
pbedef2svp=-95.63693005291 b3lypdef2svp=-95.70638968968 b3lypvdz=-95.7779027942
N      26.21400000     32.09700000      8.77100000
C      26.77200000     33.43600000      9.19700000
H      25.36900000     31.73600000      9.16600000
H      27.66100000     33.67200000      8.59400000
H      26.72330000     31.58690000      8.07790000
H      27.04930000     33.38190000     10.26010000
H      25.99930000     34.19790000      9.01690000
