20
pbedef2svp=-327.62315876719
C      26.92600000     18.19100000     18.89200000
C      26.62100000     17.79900000     20.35200000
C      24.27200000     21.54400000     17.64400000
C      25.05200000     21.28500000     18.77600000
N      26.58500000     20.06300000     13.37800000
C      26.48200000     19.28000000     14.43200000
O      25.60900000     19.38800000     15.28700000
H      27.14900000     19.26800000     18.86300000
H      26.03200000     17.98500000     18.28500000
H      27.54500000     17.79200000     20.94900000
H      25.90200000     18.50300000     20.79700000
H      27.77560000     17.65050000     18.44920000
H      26.18900000     16.78870000     20.30110000
H      24.69800000     21.42900000     16.65800000
H      26.07000000     20.94100000     18.66600000
H      23.22570000     21.86490000     17.75520000
H      24.62430000     21.43290000     19.77860000
H      27.36400000     19.94300000     12.76300000
H      25.91220000     20.77310000     13.17030000
H      27.25840000     18.50640000     14.52510000
