11
pbedef2svp=-209.92194692173
C      24.24100000     20.43600000     12.85700000
O      23.26400000     20.95100000     13.32900000
N      20.71700000     22.96400000     12.26000000
C      21.18400000     24.26300000     11.69000000
H      25.21610000     20.92100000     13.01190000
H      24.24020000     19.45520000     12.35890000
H      21.38500000     22.24600000     12.45600000
H      20.53700000     25.08800000     12.02200000
H      19.74930000     22.79780000     12.44970000
H      21.13070000     24.15350000     10.59680000
H      22.21520000     24.44100000     12.02900000
