11
pbedef2svp=-267.86921837022 b3lypdef2svp=-268.0364170398 b3lypvdz=-268.24784846368
C      39.06300000     28.06300000     23.69500000
C      40.34000000     27.69200000     24.46800000
C      40.55900000     28.58500000     25.67500000
O      40.71600000     29.80900000     25.45600000
O      40.54900000     28.09000000     26.84000000
H      38.35200000     27.23900000     23.85600000
H      40.25700000     26.64900000     24.80900000
H      41.20300000     27.79000000     23.79400000
H      40.67600000     28.78100000     27.47900000
H      39.29290000     28.08300000     22.61950000
H      38.55900000     28.98150000     24.03010000
