12
pbedef2svp=-247.9808291235 b3lypdef2svp=-248.1406939575 b3lypvdz=-248.33403567051
N      26.46500000     25.68900000     21.83300000
C      26.82600000     24.52100000     21.01200000
C      27.99400000     23.78100000     21.64300000
O      28.90400000     24.44400000     22.09800000
C      27.04300000     24.99200000     19.57100000
H      26.78200000     26.59400000     21.54900000
H      25.96700000     23.83400000     21.00400000
H      27.96900000     25.58500000     19.54900000
H      27.16400000     24.09800000     18.94200000
H      25.91410000     25.61040000     22.66390000
H      27.95110000     22.68180000     21.64710000
H      26.24290000     25.60510000     19.13060000
