16
pbedef2svp=-159.27828184703
C      38.52800000     32.85400000     23.18200000
C      37.73800000     31.63700000     23.71200000
C      35.92600000     35.97900000     21.73700000
C      35.11400000     36.56400000     22.90700000
H      38.63400000     32.78100000     22.09000000
H      37.99600000     33.78200000     23.43800000
H      37.65300000     31.71100000     24.80600000
H      39.52240000     32.85400000     23.65240000
H      38.24310000     30.69940000     23.43680000
H      36.73540000     31.71200000     23.26570000
H      36.73600000     35.36100000     22.15200000
H      34.52600000     37.42200000     22.55000000
H      35.80200000     36.89500000     23.69900000
H      35.25950000     35.33270000     21.14700000
H      36.36930000     36.78820000     21.13810000
H      34.43450000     35.79830000     23.30950000
