18
pbedef2svp=-326.48989138895 b3lypdef2svp=-326.70415987177 b3lypvdz=-326.95477647534
C      28.76200000     29.57300000     19.90600000
C      27.33100000     29.31700000     20.36400000
O      27.10100000     28.34600000     21.09700000
C      29.15100000     28.65500000     18.75500000
C      30.41600000     28.91200000     17.98000000
C      30.73800000     27.69300000     17.12200000
N      26.43600000     30.23200000     20.00400000
H      28.81600000     30.60900000     19.54100000
H      29.23500000     27.64100000     19.17300000
H      28.32300000     28.68600000     18.03100000
H      31.24500000     29.08800000     18.68100000
H      31.66200000     27.87700000     16.55400000
H      30.87500000     26.81500000     17.77000000
H      29.90900000     27.50700000     16.42300000
H      26.73800000     30.99700000     19.43500000
H      29.45240000     29.47150000     20.75640000
H      30.26450000     29.81400000     17.36890000
H      25.47470000     30.18950000     20.27620000
