18
pbedef2svp=-235.27510623159 b3lypdef2svp=-235.45124664767 b3lypvdz=-235.62826986449
C      26.92600000     18.19100000     18.89200000
C      28.10800000     17.43900000     18.27600000
C      24.51700000     21.47000000     20.03000000
C      22.43700000     22.15700000     19.06500000
C      25.05200000     21.28500000     18.77600000
C      23.20400000     21.90700000     20.19200000
H      27.14900000     19.26800000     18.86300000
H      26.03200000     17.98500000     18.28500000
H      27.85100000     16.37300000     18.19200000
H      26.70840000     17.91140000     19.93340000
H      29.02550000     17.55440000     18.87180000
H      28.30110000     17.84390000     17.27160000
H      21.42600000     22.51800000     19.18200000
H      26.07000000     20.94100000     18.66600000
H      22.79100000     22.04900000     21.18000000
H      25.09870000     21.33630000     20.95400000
H      22.83830000     21.99430000     18.05380000
H      24.43870000     21.48870000     17.88590000
