20
pbedef2svp=-327.66257662856
N      23.88000000     26.72700000     23.85100000
C      23.04600000     27.08700000     22.91300000
O      23.38300000     27.62700000     21.87000000
C      25.34900000     26.87200000     23.64300000
C      25.64600000     31.67000000     22.42100000
C      25.03400000     30.17000000     20.40100000
C      24.63900000     31.42600000     21.28600000
H      23.53200000     26.35300000     24.71100000
H      25.55800000     27.73800000     22.99800000
H      21.97730000     26.87910000     23.07020000
H      25.63300000     25.94500000     23.12330000
H      25.87450000     26.98350000     24.60290000
H      26.63000000     31.89000000     21.98200000
H      25.30900000     32.53200000     23.01600000
H      24.85900000     29.26400000     21.00000000
H      24.67100000     32.30400000     20.62400000
H      25.73940000     30.79640000     23.08290000
H      26.09140000     30.21680000     20.10160000
H      24.36060000     30.15480000     19.53130000
H      23.60990000     31.34340000     21.66570000
