13
pbedef2svp=-323.09850406132 b3lypdef2svp=-323.30056663473 b3lypvdz=-323.55629114489
C      25.14900000     31.60900000     14.98000000
C      25.69800000     32.87600000     15.66900000
O      26.15800000     33.73000000     14.89400000
N      27.75100000     35.86700000     13.74000000
C      28.63800000     35.46100000     12.90000000
O      29.52200000     36.10300000     12.32000000
H      24.28500000     31.20800000     15.53000000
H      24.87990000     31.91780000     13.95910000
H      25.97710000     30.88500000     14.97070000
H      25.63210000     32.93510000     16.76540000
H      27.09800000     35.21600000     14.12700000
H      27.71110000     36.82960000     14.00790000
H      28.61460000     34.39800000     12.61790000
