14
pbedef2svp=-361.13459132732 b3lypdef2svp=-361.35538611504 b3lypvdz=-361.6406951254
C      29.60400000     43.50700000     13.39300000
O      29.21900000     43.98100000     12.30100000
N      30.56300000     42.62300000     13.49500000
C      31.19100000     42.01200000     12.33100000
C      30.45900000     40.66600000     12.13000000
O      30.25300000     39.99100000     13.13300000
C      32.67200000     41.71700000     12.50500000
H      30.87700000     42.35700000     14.40600000
H      31.04300000     42.64100000     11.44100000
H      33.20000000     42.65600000     12.72600000
H      32.80100000     41.01800000     13.34500000
H      29.14480000     43.83930000     14.33570000
H      30.21240000     40.39270000     11.09340000
H      33.10360000     41.26910000     11.59780000
