15
pbedef2svp=-647.11038017998 b3lypdef2svp=-647.39772468262 b3lypvdz=-647.71831740384
C      29.27900000     23.22700000      5.64100000
O      28.47800000     23.52200000      4.72500000
N      29.38000000     22.05700000      6.23200000
C      25.11200000     24.88000000      3.64900000
C      25.35300000     24.86000000      5.13400000
S      23.93000000     23.95900000      5.90400000
H      30.12100000     21.92300000      6.89000000
H      30.00160000     23.95610000      6.03630000
H      28.75700000     21.29400000      6.05990000
H      24.23300000     25.51000000      3.45100000
H      24.90700000     23.85100000      3.31900000
H      26.29500000     24.33800000      5.35600000
H      25.40300000     25.88800000      5.52200000
H      25.95510000     25.26940000      3.05940000
H      24.31650000     23.97770000      7.18690000
