18
pbedef2svp=-326.4846384953 b3lypdef2svp=-326.69876599781 b3lypvdz=-326.94917707346
C      35.03100000     21.72200000     17.06900000
C      35.61500000     22.19000000     15.75900000
O      36.53200000     23.04600000     15.72400000
C      35.66700000     20.38300000     17.44700000
C      37.12800000     20.29300000     17.87200000
N      35.13900000     21.62400000     14.66200000
C      35.59000000     21.94500000     13.30200000
H      35.24600000     22.46200000     17.85400000
H      35.07400000     19.98200000     18.28200000
H      35.55700000     19.72700000     16.57100000
H      37.75600000     20.74400000     17.09000000
H      37.26100000     20.84600000     18.81300000
H      34.42500000     20.93200000     14.76600000
H      36.68700000     21.87000000     13.28900000
H      33.94390000     21.57830000     16.98180000
H      37.44130000     19.24960000     18.02400000
H      35.33660000     22.97950000     13.02700000
H      35.21250000     21.23590000     12.55060000
