17
pbedef2svp=-342.49982818919 b3lypdef2svp=-342.71781774081 b3lypvdz=-342.98171792613
N      29.72100000     43.67300000     15.88500000
C      28.97800000     43.96000000     14.67800000
C      29.60400000     43.50700000     13.39300000
O      29.21900000     43.98100000     12.30100000
N      30.56300000     42.62300000     13.49500000
C      31.19100000     42.01200000     12.33100000
C      32.67200000     41.71700000     12.50500000
H      29.42000000     42.90600000     16.45100000
H      27.99600000     43.47100000     14.76400000
H      28.84100000     45.05000000     14.61900000
H      30.87700000     42.35700000     14.40600000
H      31.04300000     42.64100000     11.44100000
H      33.20000000     42.65600000     12.72600000
H      32.80100000     41.01800000     13.34500000
H      30.51820000     44.19570000     16.18720000
H      30.66990000     41.05390000     12.18790000
H      33.10360000     41.26910000     11.59780000
