14
pbedef2svp=-158.09578927363 b3lypdef2svp=-158.21642542536 b3lypvdz=-158.33255484116
C      24.57700000     25.19000000     19.07900000
C      27.04300000     24.99200000     19.57100000
C      25.93100000     25.84400000     18.95900000
C      26.20300000     26.08300000     17.47100000
H      23.81400000     25.84000000     18.62600000
H      24.59000000     24.22100000     18.55800000
H      24.33900000     25.03100000     20.14100000
H      27.96900000     25.58500000     19.54900000
H      27.16400000     24.09800000     18.94200000
H      25.90600000     26.81600000     19.47400000
H      25.39600000     26.69700000     17.04400000
H      27.16300000     26.60700000     17.35300000
H      26.24600000     25.11700000     16.94600000
H      26.88710000     24.65370000     20.60600000
