15
pbedef2svp=-287.26397711228 b3lypdef2svp=-287.45124567988 b3lypvdz=-287.67233727235
C      25.59400000     21.10900000     13.07200000
C      24.24100000     20.43600000     12.85700000
O      23.26400000     20.95100000     13.32900000
C      26.08400000     21.88800000     11.83300000
C      27.42600000     22.61600000     11.90200000
N      24.24000000     19.23300000     12.24600000
H      25.51600000     21.80500000     13.92000000
H      26.14900000     21.16800000     11.00400000
H      25.31800000     22.64300000     11.60300000
H      28.23400000     21.90500000     12.13000000
H      25.09100000     18.79700000     11.95400000
H      26.33400000     20.32790000     13.30050000
H      27.63490000     23.13470000     10.95470000
H      27.39290000     23.41200000     12.66050000
H      23.35340000     18.79510000     12.09710000
