23
pbedef2svp=-312.80444470781
C      35.03100000     21.72200000     17.06900000
C      35.66700000     20.38300000     17.44700000
C      34.50900000     26.07700000     19.36000000
C      34.34300000     26.44500000     17.89800000
O      33.54400000     23.08600000     20.88300000
C      33.63800000     20.71600000     21.24200000
C      34.17400000     22.12900000     21.35400000
H      35.24600000     22.46200000     17.85400000
H      35.07400000     19.98200000     18.28200000
H      35.55700000     19.72700000     16.57100000
H      33.94390000     21.57830000     16.98180000
H      35.45680000     22.06320000     16.11390000
H      36.72140000     20.31800000     17.75370000
H      34.78800000     25.01600000     19.43700000
H      35.30300000     26.69700000     19.80200000
H      34.05700000     27.50400000     17.81100000
H      33.56400000     25.81600000     17.44200000
H      33.57070000     26.24550000     19.90870000
H      35.30370000     26.27560000     17.38970000
H      33.51900000     20.30000000     22.25300000
H      34.35900000     20.10600000     20.67800000
H      32.66610000     20.68350000     20.72780000
H      35.12210000     22.29880000     21.88520000
