20
b3lypvdz=-236.903606084025 
C           0.56752700      1.32942100     -0.12958300
C           2.00557100      0.79614900     -0.27955200
C          -0.35084300      0.57870100     -1.11407500
C           0.58106500      2.84813500     -0.44935500
C           0.10221400      1.08020700      1.31722000
C          -0.77759100      3.55666200     -0.48062400
H           2.06975900     -0.26614900      0.01383600
H           2.70982100      1.35973800      0.35481500
H           2.35482400      0.87881300     -1.32284800
H          -0.26534700     -0.51414000     -0.98493100
H          -1.41116300      0.84529000     -0.97111900
H          -0.08435400      0.81451800     -2.15959900
H           1.07569700      2.98664400     -1.42950700
H           1.23876200      3.34631300      0.28683500
H           0.76032000      1.59340700      2.03803000
H          -0.92638800      1.43656500      1.48995000
H           0.12512200      0.00278400      1.55280300
H          -1.32420500      3.45162900      0.47191400
H          -1.42720500      3.16294600     -1.27937900
H          -0.64878500      4.63556500     -0.66803200
