5
b3lypvdz=-40.480441627718 
C           0.60588100      1.40403500      0.01812300
H           1.59026300      1.00624100     -0.27121000
H          -0.16727500      0.96456400     -0.62819400
H           0.60287000      2.49882800     -0.09567900
H           0.39926100      1.14283200      1.06696000
