21
b3lypvdz=-274.989167845275 
C           0.61218000      1.39157200     -0.05186400
C           1.92239800      0.72561300     -0.53108700
C          -0.45422200      0.71990300     -0.93617100
C           1.53015200     -0.74434800     -0.84547700
C          -0.01843600     -0.75889500     -1.01164800
C           0.61415700      2.91972800     -0.13443400
C           3.10332200      0.85451500      0.43273000
H           0.42952300      1.09282700      0.99959400
H           2.20418300      1.21785300     -1.48282200
H          -1.47592000      0.84296000     -0.53887200
H          -0.43518200      1.18034700     -1.94051800
H           1.83659400     -1.41202800     -0.02201000
H           2.04946900     -1.10619200     -1.74742400
H          -0.34302300     -1.24264900     -1.94643100
H          -0.48080600     -1.32827800     -0.18818900
H          -0.36337900      3.33763300      0.16171600
H           0.82784300      3.25557100     -1.16492500
H           1.37388300      3.36763600      0.52670200
H           3.36821300      1.91018900      0.61222400
H           3.99903000      0.34902100      0.03438000
H           2.86742300      0.39612400      1.41022500
