20
b3lypvdz=-236.90220342194 
C           0.64744000      1.42904300      0.10890100
C           1.89257100      0.71710000     -0.47305900
C           1.59319100     -0.74592900     -0.84333700
C           3.14171600      0.81186600      0.42820100
C           0.21732700      0.99729100      1.51884900
C           3.58598300      2.23858200      0.77785400
H          -0.19509800      1.26453800     -0.58781700
H           0.82307800      2.51905100      0.10769100
H           2.14125900      1.24556600     -1.41521200
H           0.76425600     -0.81359300     -1.56820400
H           1.31093600     -1.34227500      0.04160000
H           2.47295400     -1.23066500     -1.29951500
H           3.97325000      0.29666500     -0.08717300
H           2.97006600      0.23824800      1.35791200
H           0.99444600      1.20932400      2.27168300
H          -0.68983600      1.54075600      1.82986600
H          -0.01180000     -0.08029400      1.57393800
H           3.77156100      2.83454800     -0.13246800
H           4.52001300      2.23023800      1.36370200
H           2.83178500      2.77504200      1.37738800
