15
b3lypvdz=-196.399610612161 
C           3.17501900      0.77796500      0.41855400
C           4.40828700      0.22405600     -0.24276200
C           5.15476300     -0.78201000      0.22861300
C           6.36655200     -1.35850400     -0.45752000
C           7.64368500     -1.28672800      0.39707300
H           2.29372000      0.67123000     -0.24062500
H           3.28840500      1.85733100      0.63057400
H           2.95403500      0.26474700      1.36794600
H           4.68880000      0.68493200     -1.20008300
H           4.87747000     -1.24620300      1.18614100
H           6.16568400     -2.41963800     -0.70374500
H           6.53273700     -0.84129000     -1.41852700
H           7.90845600     -0.24111900      0.62701900
H           8.49749200     -1.74874900     -0.12735300
H           7.51649600     -1.81911900      1.35549500
