21
b3lypvdz=-274.986772615601 
C           0.56547800      1.39517000      0.00659700
C           1.88946200      0.73814300     -0.46119300
C          -0.46105500      0.71014500     -0.92682300
C           1.54048700     -0.72854500     -0.83300400
C          -0.00545900     -0.76065100     -1.03079000
C           0.57878500      2.91866000     -0.16309200
C           0.27840000      1.05253600      1.48132100
H           2.68472900      0.80883900      0.29960800
H           2.25668400      1.27422300     -1.35355900
H          -1.49868100      0.81625000     -0.56678100
H          -0.41264400      1.18908000     -1.92085900
H           1.84815400     -1.42772200     -0.03893800
H           2.07644000     -1.04305500     -1.74223800
H          -0.30269900     -1.21697000     -1.98814900
H          -0.48091400     -1.36582700     -0.24178100
H          -0.39205200      3.35949000      0.12319300
H           0.78550600      3.20283800     -1.20910800
H           1.35174400      3.38782800      0.46812100
H           1.01682600      1.53346200      2.14386600
H          -0.72053300      1.41319400      1.78241300
H           0.31584200     -0.03138900      1.67769600
