12
b3lypvdz=-157.106073971969 
C          -1.86920900      1.15035800     -0.61190100
C          -0.75660400      3.42535700     -0.85032700
C          -2.02057500      2.65147900     -0.46161900
C          -2.82696400      0.24646000     -0.39171000
H          -0.87933100      0.79343800     -0.92906000
H           0.10350100      3.11162500     -0.23459200
H          -0.48914700      3.24735100     -1.90686700
H          -0.88816600      4.51141100     -0.71384100
H          -2.87263800      2.99920100     -1.07384300
H          -2.28895100      2.88796800      0.58506100
H          -3.83275000      0.54369700     -0.07245000
H          -2.63906600     -0.82384500     -0.51835300
