18
b3lypvdz=-235.678863889661 
C           0.55713000      1.43284800      0.02254100
C          -0.46785100      0.76109400     -0.92751200
C           0.58760300      2.96130700     -0.13032000
C          -1.91257800      1.10977600     -0.67767100
C           0.34350900      1.03018400      1.48922100
C          -2.87947900      0.22489600     -0.41449700
H           1.55100500      1.05434200     -0.28379500
H          -0.34642100     -0.33552400     -0.87205700
H          -0.21190900      1.05118000     -1.96615900
H          -0.35326600      3.42529200      0.21349900
H           0.74943400      3.25900500     -1.18088900
H           1.40244900      3.39880200      0.46988300
H          -2.18189500      2.17312500     -0.73518100
H           1.13047500      1.46024100      2.13144100
H          -0.62909000      1.38977100      1.86746100
H           0.36828000     -0.06613900      1.61541300
H          -3.91449100      0.54644200     -0.25968100
H          -2.67100600     -0.84954400     -0.34669700
