18
b3lypvdz=-235.677762090498 
C           0.59133900      1.47437600     -0.03272900
C          -0.38666700      0.74010400     -0.98042800
C          -0.08817600     -0.76361900     -1.00075000
C           0.57347300      3.00504700     -0.12478600
C          -1.82687000      1.06658200     -0.65385500
C          -2.80880300      0.20089400     -0.38077000
H           1.61428400      1.12364900     -0.26043200
H           0.37972800      1.16408500      1.00802700
H          -0.19524400      1.13242900     -2.00142000
H           0.95660600     -0.94236200     -1.30302700
H          -0.73528800     -1.29968700     -1.71250600
H          -0.23193200     -1.21587800     -0.00430700
H          -0.38894900      3.43271900      0.20062100
H           0.76332800      3.34401400     -1.15828000
H           1.35465100      3.44240700      0.51764100
H          -2.07733400      2.13543100     -0.64261100
H          -3.81709400      0.55853300     -0.15296800
H          -2.65475300     -0.88212400     -0.36962100
