18
b3lypvdz=-235.685063861407 
C           3.17434700      0.77591700      0.41450200
C           4.40714200      0.21755200     -0.24365900
C           5.14960900     -0.79182700      0.22721000
C           6.37595900     -1.34954500     -0.44941600
C           7.64644200     -1.26347000      0.41650400
C           8.90360100     -1.75965300     -0.30936300
H           2.29444500      0.67602800     -0.24747700
H           3.29411600      1.85422500      0.62844200
H           2.94774500      0.26303600      1.36262100
H           4.69511300      0.68300200     -1.19646400
H           4.86593600     -1.26191800      1.17977000
H           6.19750100     -2.41250800     -0.70795900
H           6.54473000     -0.82010200     -1.40412500
H           7.79528600     -0.21601700      0.73505800
H           7.49958200     -1.85012500      1.34222500
H           9.09421800     -1.16756200     -1.22061100
H           9.79431000     -1.67860700      0.33620900
H           8.80291700     -2.81642700     -0.61436900
