16
b3lypvdz=-234.467582876806 
C           0.61304000      1.39796000     -0.02249300
C          -0.43465700      0.73821900     -0.93283600
C          -1.84737900      1.12742200     -0.60081900
C          -2.83091100      0.27252900     -0.26378500
C          -4.19823000      0.66889400      0.05045300
C          -5.18616300     -0.18257000      0.37331200
H           1.63110900      1.08705000     -0.31011700
H           0.56812300      2.49912000     -0.08942200
H           0.45570600      1.11809900      1.03313100
H          -0.33588500     -0.36049000     -0.88165400
H          -0.21714400      1.02683800     -1.98015900
H          -2.07604100      2.20238200     -0.63826000
H          -2.61080900     -0.80297200     -0.22146200
H          -4.41429100      1.74440400      0.01271600
H          -6.19286500      0.17542300      0.60052500
H          -5.01470300     -1.26311000      0.42366900
