17
b3lypvdz=-197.615055662534 
C           0.77224300      1.44689600      0.03973700
C           0.50732700      2.95631500     -0.14423100
C           0.29511500      0.88954300      1.38651000
C          -0.77530000      3.32803000     -0.90858600
C          -2.09769500      2.81302800     -0.33166600
H           1.85581500      1.25562900     -0.05260700
H           0.30244400      0.88430900     -0.78835100
H           1.35264600      3.41011000     -0.69065300
H           0.50537000      3.44410500      0.84911700
H           0.79941200      1.40724700      2.22054600
H          -0.78991400      1.02400100      1.52686400
H           0.51861800     -0.18639000      1.48296400
H          -0.68022600      2.96774400     -1.95038800
H          -0.82375600      4.43050800     -0.97336200
H          -2.15100700      1.71167900     -0.33427300
H          -2.94637600      3.18304200     -0.93065800
H          -2.25161800      3.15300300      0.70683700
