12
b3lypvdz=-157.114991029863 
C          -1.82843700      1.14813300     -0.58630600
C          -2.03304200      2.63628300     -0.44569100
C          -0.42894100      0.71572700     -0.95154500
C          -2.82254900      0.26934700     -0.39959100
H          -1.78032000      3.15788100     -1.38794500
H          -3.07192500      2.88802400     -0.18077900
H          -1.37021500      3.05224800      0.33450400
H           0.29956400      1.06259400     -0.19622400
H          -0.34347500     -0.37916700     -1.03231600
H          -0.12103700      1.15814500     -1.91688700
H          -3.83244000      0.59850800     -0.13559600
H          -2.66118300     -0.80852300     -0.50462400
