19
b3lypvdz=-273.75416301171 
C          -1.92570100      1.24583700     -0.61642400
C          -0.58907600      3.37468700     -0.86691700
C          -1.96541100      2.75681900     -0.60594200
C          -2.93088200      0.40153900     -0.31272000
C          -4.28426400      0.76954000      0.07774100
C          -5.23275000     -0.12855100      0.40726700
C          -6.63797200      0.18555500      0.81202900
H          -0.96387500      0.80135100     -0.89770700
H           0.15063200      3.00227500     -0.13859100
H          -0.22004200      3.10970100     -1.87233600
H          -0.60889300      4.47352300     -0.79227900
H          -2.69162800      3.12551100     -1.35521100
H          -2.35346300      3.11757600      0.36482900
H          -2.72814200     -0.67542000     -0.35700600
H          -4.53590400      1.83736600      0.10423100
H          -4.95574500     -1.19165800      0.38226700
H          -7.36962900     -0.33749400      0.17148700
H          -6.84629200     -0.15953900      1.84178400
H          -6.84746000      1.26558300      0.76149600
