21
b3lypvdz=-274.962401577451 
C          -0.28088300      0.76604400     -0.79963200
C           1.51431800     -1.02284800     -1.01436800
C           0.02490100     -0.73285700     -0.82138400
C          -1.72722700      1.17430000     -0.60948900
C          -0.90109100      3.66144500     -0.75664700
C          -2.04736500      2.67134400     -0.53258500
C          -2.72639500      0.28661200     -0.50356500
H           0.33003700      1.24522400     -0.01119700
H           0.09177800      1.21900700     -1.73935600
H           2.11989200     -0.57615000     -0.20800200
H           1.71778900     -2.10575700     -1.02213800
H           1.88546200     -0.60617400     -1.96648700
H          -0.55416200     -1.21901400     -1.62652700
H          -0.32126400     -1.19286300      0.12107800
H          -0.09849200      3.55224200     -0.00992700
H          -0.43893100      3.55286500     -1.75151900
H          -1.28329100      4.69247600     -0.68158200
H          -2.84589200      2.88880400     -1.26343800
H          -2.49612600      2.87643100      0.45618500
H          -3.75929200      0.62332400     -0.37018900
H          -2.56356700     -0.79165800     -0.53993100
