18
b3lypvdz=-235.680535489375 
C           0.59218400      1.25564800     -0.00652400
C           2.00251900      0.85209400     -0.45319800
C          -0.48412000      0.62899200     -0.92483500
C          -1.87864400      1.13739200     -0.68048500
C           0.37311300      0.91455300      1.47146800
C          -2.95171700      0.39279900     -0.39790700
H           0.50398800      2.35511400     -0.12251500
H           2.15486900     -0.23560500     -0.32820400
H           2.77047000      1.36538800      0.14760600
H           2.18260500      1.09980800     -1.51287500
H          -0.46546300     -0.47369300     -0.83362500
H          -0.20484500      0.86570700     -1.97053500
H          -2.00303800      2.22778200     -0.75411600
H           1.09612600      1.44586800      2.11156300
H          -0.64018600      1.18370500      1.80963000
H           0.50845900     -0.16885400      1.64700000
H          -3.93534900      0.84624900     -0.24623300
H          -2.88887100     -0.69794800     -0.31071400
