9
b3lypvdz=-154.948576452953 
O          -7.60301500     -0.26619300     -1.37683100
C          -6.57045600      0.37724800      0.75133000
C          -7.63124700     -0.44950100      0.03527500
H          -6.73845500     -0.57334600     -1.68713800
H          -5.55632600      0.05998600      0.44502000
H          -6.64363300      0.26706800      1.84752200
H          -6.68020700      1.44435300      0.49398000
H          -7.52865300     -1.52339300      0.30194200
H          -8.63810800     -0.13142200      0.35350000
