18
b3lypvdz=-235.678675188523 
C           0.61241000      1.35421500     -0.00906700
C           1.88089300      0.66065600     -0.52685700
C           0.65800100      2.88261400     -0.07512200
C           3.13083400      0.86044400      0.35082600
C           4.36559200      0.26797900     -0.26880300
C           5.07316500     -0.75276200      0.22183200
H          -0.24677000      0.99041800     -0.59901800
H           0.41944200      1.03239700      1.03201300
H           1.69718700     -0.42359700     -0.62513100
H           2.09935800      1.02637800     -1.54904000
H          -0.29519900      3.32977500      0.25149600
H           0.85383700      3.22726500     -1.10627100
H           1.44634800      3.30849100      0.56641500
H           3.29200600      1.94235100      0.51555600
H           2.96016900      0.41116100      1.34599000
H           4.67454600      0.71817500     -1.22287000
H           5.95505600     -1.14223900     -0.29349700
H           4.79742400     -1.23252100      1.16724800
