17
b3lypvdz=-197.618402805568 
C           0.56943800      1.39656700     -0.00773200
C          -0.16242100      0.55237500     -1.06089200
C           0.57643700      2.90118900     -0.36099000
C           0.03621800      1.12395900      1.40591100
C          -0.79523100      3.57099500     -0.49928300
H           1.62953100      1.07815500     -0.01783300
H          -0.02929400     -0.52616900     -0.87038800
H          -1.24752100      0.75341900     -1.06877000
H           0.22245400      0.76461100     -2.07337300
H           1.13060700      3.02557700     -1.30967300
H           1.17155800      3.43565700      0.40216300
H           0.59863600      1.69577200      2.16205000
H          -1.02860800      1.39747700      1.50599500
H           0.12594000      0.05463400      1.66147900
H          -1.39028100      3.49769000      0.42676900
H          -1.38934600      3.11897400     -1.31041600
H          -0.68461600      4.64271700     -0.73381500
