17
b3lypvdz=-197.615073362079 
C           0.58233600      1.35784800     -0.03746500
C           1.94483200      0.81092000     -0.50700100
C           0.43021600      2.88047400     -0.06301800
C           3.10551500      0.85367600      0.50434200
C           3.71797600      2.23292800      0.78085100
H          -0.20046900      0.92217800     -0.68380200
H           0.36884500      0.97631700      0.97912600
H           1.79927500     -0.24449000     -0.79876400
H           2.25017300      1.33534900     -1.43349000
H          -0.59915500      3.18268700      0.19221000
H           0.65527100      3.28096500     -1.06758600
H           1.10353300      3.38522500      0.64538400
H           3.90466800      0.18939100      0.12806000
H           2.76731400      0.39961600      1.45521100
H           4.04102200      2.72183500     -0.15511200
H           4.60393100      2.14921600      1.43179600
H           3.01171700      2.91416400      1.27975700
