16
b3lypvdz=-234.458931036468 
C          -4.01281000      0.64210600      0.05005200
C          -5.09395800     -0.13215000      0.22197000
C          -5.08934900     -1.55092200      0.64332100
C          -6.21361300     -2.42080400      0.10694700
C          -7.60556700     -2.08588400      0.67113800
C          -4.14150200     -2.05317300      1.45507800
H          -2.99918700      0.25835900      0.20176300
H          -4.11018500      1.68412700     -0.26526300
H          -6.07638300      0.30044300     -0.00438400
H          -6.24341100     -2.32552900     -0.99532300
H          -5.98223800     -3.47639600      0.32751800
H          -7.89560700     -1.04171300      0.46508500
H          -8.37199900     -2.73338500      0.21541900
H          -7.63815900     -2.23517600      1.76359100
H          -4.12807600     -3.11268500      1.72458900
H          -3.35805600     -1.42251900      1.88169800
