18
b3lypvdz=-235.678317589126 
C           0.68504700      1.37803500      0.04101300
C           1.91740300      0.59530100     -0.43356600
C           3.17802900      0.77358000      0.43779200
C           0.23396900      1.06949700      1.47185800
C           4.42051900      0.28258600     -0.25205700
C           5.15278900     -0.77400600      0.11045100
H          -0.14640200      1.16674000     -0.65565300
H           0.89009200      2.46145800     -0.05366500
H           1.68275000     -0.48346400     -0.49337000
H           2.15501600      0.91221200     -1.46565900
H           3.29809100      1.84808600      0.67813400
H           3.05444700      0.24881700      1.40029800
H           1.00881800      1.32741200      2.21301000
H          -0.67030600      1.64134900      1.73600100
H           0.00005100     -0.00219600      1.59925100
H           4.71483100      0.84813800     -1.14752700
H           6.03696200     -1.08175400     -0.45413800
H           4.89749300     -1.36889100      0.99392500
