17
b3lypvdz=-272.530121647064 
C          -1.96765400      1.18308300     -0.72810700
C          -1.96609900      2.66924100     -0.52791300
C          -2.95446800      0.30996800     -0.42892000
C          -4.28236100      0.64474700      0.06543400
C          -5.18769200     -0.20108900      0.62176700
C          -5.02047900     -1.61026100      0.97812200
C          -3.89062200     -2.21922600      1.38068900
H          -1.04224800      0.76480600     -1.14114600
H          -1.20120800      2.96140200      0.21443600
H          -1.69791400      3.19655000     -1.46086000
H          -2.93006800      3.06194800     -0.17332900
H          -2.75551300     -0.75370000     -0.59812700
H          -4.60872000      1.68076700     -0.07309600
H          -6.18135700      0.21054400      0.83231800
H          -5.94149800     -2.20696500      0.95218700
H          -3.88399800     -3.28192600      1.63417400
H          -2.95430100     -1.67178800      1.50777100
