21
b3lypvdz=-274.969073371484 
C           3.25023700      0.82404800      0.41789000
C           4.45380700      0.22235700     -0.24876500
C           5.13960800     -0.83930000      0.19118000
C           6.33824000     -1.45338400     -0.49210400
C           7.60329300     -1.32237600      0.39089000
C           6.03887100     -2.91894800     -0.86268400
C           8.91982100     -1.59883300     -0.34244700
H           2.37524000      0.80818900     -0.25701800
H           3.42178700      1.88329200      0.68299300
H           2.97936100      0.28406400      1.33848600
H           4.77943800      0.70155700     -1.18250700
H           4.82146300     -1.32588600      1.12526000
H           6.52504500     -0.88671300     -1.42377500
H           7.63413100     -0.29868800      0.80242700
H           7.50608100     -1.99796700      1.26153300
H           6.90450800     -3.41032900     -1.33593600
H           5.18890500     -2.98480600     -1.56079600
H           5.77460900     -3.50066700      0.03847000
H           9.05053600     -0.90958000     -1.19406300
H           9.78123600     -1.45912900      0.33144200
H           8.97388400     -2.62530200     -0.74117900
