15
b3lypvdz=-196.394340495301 
C           0.59150000      1.44757300      0.02612800
C          -0.36115900      0.74576500     -0.96053900
C          -0.07274300     -0.75782500     -1.02881800
C          -1.79623800      1.08457700     -0.62488600
C          -2.79735600      0.23128700     -0.38709600
H           1.64474400      1.27992100     -0.25719500
H           0.42104900      2.53768000      0.04889900
H           0.44781100      1.06238300      1.05092000
H          -0.16041200      1.17419600     -1.96394200
H           0.97509800     -0.93541300     -1.32169100
H          -0.71401700     -1.26454800     -1.76738900
H          -0.23393800     -1.24186500     -0.05009200
H          -2.01320500      2.16067400     -0.56602200
H          -3.79753500      0.60097200     -0.14437700
H          -2.66649800     -0.85427800     -0.42220000
