17
b3lypvdz=-197.619135534058 
C           0.64043300      1.25683900     -0.49111300
C           2.07524900      0.80364500     -0.20337300
C           0.48138500      2.78048900     -0.42733200
C          -0.87412000      3.32226000     -0.90823700
C          -2.08852400      2.87611700     -0.08830300
H           0.33472800      0.89609100     -1.49183400
H          -0.04885900      0.77581100      0.22588900
H           2.16925900     -0.29512800     -0.21137700
H           2.41574500      1.16320200      0.78349300
H           2.77774300      1.20412300     -0.95382000
H           1.27554400      3.24637100     -1.03932700
H           0.66686800      3.11629400      0.61182200
H          -1.02523100      3.02258300     -1.96314100
H          -0.82806300      4.42629500     -0.90808900
H          -2.22877600      1.78247300     -0.12355600
H          -3.01215400      3.33933500     -0.47307900
H          -1.99152400      3.16910100      0.97227700
