20
b3lypvdz=-236.903609253637 
C           0.59588100      1.30446800     -0.00054100
C           1.93353800      0.63544900     -0.41919500
C          -0.49772500      0.81893300     -0.97165700
C           0.68358700      2.83812000     -0.07754200
C           3.19287800      1.03200000      0.35192500
C           0.21221200      0.89050400      1.43417500
H           1.79615500     -0.45868000     -0.33681700
H           2.09618500      0.83993100     -1.49385000
H          -0.60884700     -0.27793300     -0.93345700
H          -1.47560300      1.26562900     -0.72587000
H          -0.25733100      1.09368800     -2.01280900
H          -0.28588000      3.29391900      0.18509900
H           0.95219000      3.17934700     -1.09175500
H           1.43049700      3.24582400      0.62104300
H           3.42517500      2.10403100      0.24254800
H           4.06243800      0.47018600     -0.02488000
H           3.11082900      0.81567700      1.43045700
H           0.92581000      1.27918100      2.17774000
H          -0.78424800      1.28119100      1.70024600
H           0.18275800     -0.20726600      1.53783900
