19
b3lypvdz=-273.752975724811 
C           0.57385900      1.27444600     -0.07761800
C           2.01874000      0.87986600     -0.38846900
C          -0.45083000      0.58539900     -0.99807100
C          -1.86352600      1.02307000     -0.74494100
C          -2.84962800      0.24143700     -0.26721700
C          -4.21088600      0.69601700     -0.01750900
C          -5.20274100     -0.07736700      0.45429100
H           0.46073100      2.37088800     -0.17048300
H           0.33193000      1.02592900      0.97174700
H           2.17587700     -0.20472400     -0.25657300
H           2.72917300      1.40260500      0.27090700
H           2.28595400      1.13025600     -1.42994700
H          -0.37490600     -0.51080000     -0.88052700
H          -0.18126400      0.81336000     -2.04857200
H          -2.09178200      2.07703400     -0.95745800
H          -2.63459800     -0.81136000     -0.04033800
H          -4.41667300      1.75024700     -0.24124100
H          -6.20507100      0.32177000      0.62416200
H          -5.03595800     -1.13277300      0.69285700
