17
b3lypvdz=-272.532832918336 
C          -0.40987500      0.80478400     -0.97677800
C          -1.82720300      1.14204600     -0.63162000
C          -2.77633100      0.25050000     -0.28291200
C          -4.15050700      0.61947400      0.01493800
C          -5.15332300     -0.18608900      0.44532400
C          -5.08968600     -1.60524600      0.80915200
C          -4.09838900     -2.23128200      1.46614600
H           0.30133700      1.33522300     -0.31915000
H          -0.21626700     -0.27618000     -0.89103500
H          -0.16097500      1.12053800     -2.00678900
H          -2.10145400      2.20541100     -0.66573100
H          -2.51519000     -0.81229800     -0.24182800
H          -4.40563000      1.66824700     -0.17817300
H          -6.15148500      0.26297100      0.51055600
H          -5.98269900     -2.18877300      0.54848600
H          -4.16106200     -3.29755100      1.69717500
H          -3.21546100     -1.69497500      1.82244000
