18
b3lypvdz=-235.679736281609 
C           0.68381200      1.24361500     -0.08916600
C           1.97742700      0.60914200     -0.62207500
C          -0.56875300      0.84095800     -0.87522900
C           3.17018200      0.76917200      0.34039100
C           4.46235100      0.24325700     -0.22455300
C           5.18557200     -0.74915900      0.30340500
H           0.78978200      2.34469000     -0.10370400
H           0.54867500      0.95742600      0.97125900
H           1.81570600     -0.46866200     -0.80899200
H           2.22568200      1.05900800     -1.60162600
H          -0.73644100     -0.24885900     -0.81759000
H          -1.46685200      1.34058500     -0.47605800
H          -0.48253200      1.11298900     -1.94203100
H           3.29536800      1.84333500      0.58278600
H           2.94366000      0.25616000      1.29157600
H           4.81309600      0.72036300     -1.14998400
H           6.11566700     -1.08669900     -0.16303700
H           4.87529800     -1.25432100      1.22462700
