20
b3lypvdz=-236.90370278931 
C           0.65037000      1.24599700      0.05248900
C           1.98509100      0.60608100     -0.38427600
C          -0.45825300      0.89691700     -0.94931400
C           3.19929600      0.85463200      0.52464800
C           0.23533900      0.85264600      1.47756700
C           3.59755500      2.32625900      0.67910700
H           0.77828300      2.34531700      0.02855800
H           1.83414300     -0.48654900     -0.48079100
H           2.22321100      0.97072400     -1.40183200
H          -0.65779000     -0.19011300     -0.95336000
H          -1.40145800      1.40848400     -0.69528400
H          -0.18369800      1.18942600     -1.97683900
H           4.05511700      0.29061800      0.11196700
H           3.01180200      0.41748400      1.52160000
H           0.96208700      1.19045200      2.23262300
H          -0.73889700      1.29810200      1.73987500
H           0.13779900     -0.24418000      1.57491400
H           3.81890300      2.78807200     -0.29910700
H           4.49731000      2.43253800      1.30729700
H           2.79879100      2.92069000      1.15365800
