19
b3lypvdz=-273.748864714398 
C           0.58334100      3.07947800     -0.64515200
C          -1.80166900      1.11002000      0.13129700
C          -0.91595800      3.31017900     -0.84309100
C          -1.81027300      2.61161600      0.20309900
C          -2.86436100      0.29081800     -0.01489400
C          -4.26406300      0.68226300     -0.14153900
C          -5.28007100     -0.19103700     -0.24573700
H           0.85822200      2.01916800     -0.77014300
H           1.17614700      3.65937400     -1.36995200
H           0.90291100      3.39152400      0.36509200
H          -0.81802900      0.63461500      0.22321400
H          -1.21729000      2.98343600     -1.85446600
H          -1.12336800      4.39415300     -0.79157000
H          -2.83710000      2.99446100      0.10416900
H          -1.45840700      2.91955100      1.20848400
H          -2.67669500     -0.78990100     -0.03462800
H          -4.49537500      1.75281400     -0.15132000
H          -6.31317800      0.15256800     -0.33852600
H          -5.10808300     -1.27280000     -0.24363700
