21
b3lypvdz=-274.963667289531 
C           0.68797700      1.13133700      0.02084900
C           2.04081200      0.76666200     -0.60125800
C          -0.50614000      0.75853500     -0.85699200
C           3.23806400      0.89844300      0.37178600
C           3.55914700      2.36454600      0.70967700
C           4.45627100      0.20434500     -0.18738800
C           5.00036100     -0.91215100      0.30345200
H           0.65302500      2.21116500      0.24602200
H           0.59511000      0.61704000      0.99487600
H           2.00076100     -0.27673300     -0.96042900
H           2.22649400      1.38873400     -1.49782400
H          -0.56012300     -0.33147900     -1.01869800
H          -1.45637300      1.07574200     -0.39781700
H          -0.44645500      1.23627000     -1.84918900
H           2.95846700      0.37701800      1.30614900
H           3.89373100      2.90876400     -0.19123000
H           4.36622100      2.43169600      1.45649200
H           2.67958400      2.89072000      1.11230600
H           4.90484100      0.67536200     -1.07318000
H           5.87545600     -1.38092100     -0.15286500
H           4.58226900     -1.40069400      1.19006200
