21
b3lypvdz=-274.959360698084 
C           0.67324300      1.27237000     -0.06149900
C           2.06730400      0.95362000     -0.64121600
C           0.32651600      2.75539000      0.10932000
C           3.26221100      0.99065300      0.35025400
C           3.78023100      2.41245400      0.64570400
C           4.39629900      0.14438900     -0.18131200
C           4.85229000     -0.97820000      0.38252900
H          -0.07976600      0.82079700     -0.73153300
H           0.55672900      0.74764300      0.90486500
H           2.02550100     -0.06465600     -1.06409500
H           2.27752700      1.62427900     -1.49613800
H          -0.71165000      2.87394500      0.46307800
H           0.41738200      3.29942400     -0.84686100
H           0.97420500      3.26190700      0.84087600
H           2.92047300      0.53580800      1.29790200
H           4.15169500      2.89280300     -0.27697200
H           4.61609900      2.38666300      1.36363600
H           2.99571200      3.05696700      1.06880600
H           4.86061500      0.50020400     -1.11160500
H           5.67208500     -1.55089400     -0.06023300
H           4.41629900     -1.36966800      1.30819400
