19
b3lypvdz=-273.752208120585 
C           0.60584800      1.47721700     -0.04290000
C          -0.38371800      0.72793100     -0.95588800
C          -0.08236100     -0.77343600     -0.97961100
C          -1.80578900      1.07295200     -0.58219000
C          -2.80540500      0.22288200     -0.28114300
C          -4.15496000      0.65219500      0.06944000
C          -5.17168000     -0.17557700      0.36289100
H           1.64474700      1.31014000     -0.37371000
H           0.42111000      2.56464900     -0.05165600
H           0.51799600      1.12729100      1.00052000
H          -0.22502200      1.12121200     -1.98166200
H           0.95190400     -0.95303200     -1.31512300
H          -0.75252100     -1.31710800     -1.66333600
H          -0.18987700     -1.21910700      0.02428500
H          -2.02455400      2.15008600     -0.55551200
H          -2.62994700     -0.85907700     -0.29805000
H          -4.33028100      1.73577900      0.08933800
H          -6.16089300      0.21016100      0.61947200
H          -5.04409700     -1.26325600      0.35763700
