21
b3lypvdz=-274.964356507057 
C           0.62752000      1.09767200      0.07481100
C           2.00209400      0.60899800     -0.41859500
C          -0.47632800      0.62456500     -0.90339100
C           3.21208000      1.14062700      0.35073500
C          -1.83056000      1.23063900     -0.66461500
C           0.33321600      0.67649000      1.51952500
C          -2.97001400      0.55856500     -0.47162300
H           0.63408300      2.20673200      0.03501300
H           2.01109900     -0.49826300     -0.39609600
H           2.10544700      0.89305200     -1.48194900
H          -0.55039800     -0.47880600     -0.88125900
H          -0.14863300      0.89809900     -1.92484500
H           3.23205400      2.24447100      0.36230600
H           4.15048200      0.79587000     -0.11320000
H           3.22438500      0.79801200      1.39864900
H          -1.86464800      2.32954900     -0.66951700
H           1.04540200      1.12444200      2.22926100
H          -0.68026300      0.98269200      1.82317700
H           0.39695600     -0.42175300      1.63242300
H          -3.92153200      1.07590400     -0.32361300
H          -2.99594400     -0.53685800     -0.46149800
