15
b3lypvdz=-196.394989125368 
C           0.59834100      1.24811300     -0.07911700
C           2.02237000      0.81687700     -0.43801200
C          -0.47519400      0.66131500     -1.01259000
C          -1.86635800      1.12014800     -0.67161300
C          -2.88130100      0.33090900     -0.30906700
H           0.52956800      2.35219900     -0.10756900
H           0.36588000      0.95206300      0.96042400
H           2.14751600     -0.27632400     -0.34638100
H           2.76416600      1.29352900      0.22218800
H           2.27542000      1.09448500     -1.47646000
H          -0.43406500     -0.44329000     -0.98667200
H          -0.23510300      0.96412000     -2.05162700
H          -2.03258400      2.20634000     -0.71447500
H          -3.86404400      0.74211800     -0.06312900
H          -2.76651200     -0.75720200     -0.24390000
