21
b3lypvdz=-274.97067643026 
C           3.03874000      0.62275900      0.45948800
C           4.34292300      0.26359000     -0.19182100
C           5.14396900     -0.74292800      0.18027500
C           6.42466600     -1.15193700     -0.49325300
C           7.65990400     -1.17307100      0.43897400
C           8.07604000      0.24386900      0.85680600
C           8.83057800     -1.92098800     -0.21335400
H           2.20387000      0.54326900     -0.26064100
H           3.03788300      1.66580400      0.82451300
H           2.81445900     -0.03483700      1.31347700
H           4.63717600      0.87578400     -1.05564400
H           4.84725100     -1.35495000      1.04458700
H           6.28996200     -2.17139100     -0.90440000
H           6.62440700     -0.49232900     -1.35724900
H           7.36930200     -1.73035500      1.35132600
H           8.89967100      0.22223700      1.58979700
H           8.42838500      0.81735200     -0.01984500
H           7.23471400      0.79807500      1.30320000
H           9.16642100     -1.40821800     -1.13179300
H           9.69487800     -1.98111300      0.46834000
H           8.54730100     -2.94952000     -0.49338200
