12
b3lypvdz=-157.109318024855 
C          -6.14317000     -2.49020100      0.16123300
C          -7.54293200     -1.93677400      0.47678700
C          -4.05292900     -2.10578600      1.53482700
C          -5.01883900     -1.66345100      0.72402700
H          -6.02616900     -2.53706000     -0.93970900
H          -6.05621000     -3.52696700      0.53217000
H          -7.65421700     -0.90000300      0.11292100
H          -8.32652600     -2.54184800     -0.00692500
H          -7.73384900     -1.93472600      1.56322100
H          -4.01715300     -3.14904400      1.86837800
H          -3.26039000     -1.44406400      1.89429500
H          -5.00911400     -0.60667600      0.41897400
