21
b3lypvdz=-274.970386019365 
C           1.93752600      0.81080000     -0.47692100
C           3.16927500      0.74350200      0.43958100
C           4.39068600      0.19607100     -0.24914000
C           5.12620800     -0.83953500      0.17112300
C           6.34957300     -1.39671900     -0.51486600
C           7.60427200     -1.22449800      0.36091500
C           6.13875900     -2.87793600     -0.88008700
H           1.07271800      1.25054600      0.04662700
H           1.65033100     -0.19268200     -0.83305300
H           2.13619400      1.43241700     -1.36700300
H           3.38772300      1.76416100      0.81002900
H           2.94321500      0.13370100      1.33159200
H           4.68196000      0.70626800     -1.17928400
H           4.83867400     -1.34819300      1.10414300
H           6.50672300     -0.82626800     -1.44894200
H           7.78557000     -0.16360700      0.59739300
H           8.49819400     -1.62193500     -0.14950800
H           7.49912500     -1.76798100      1.31633100
H           7.03656100     -3.30080100     -1.36225300
H           5.28720900     -3.00558500     -1.56736500
H           5.93220500     -3.47782700      0.02428900
