13
b3lypvdz=-195.182577641025 
C          -0.44159700      0.72999300     -0.97239100
C          -1.84565700      1.11529500     -0.61564100
C          -2.83196500      0.25911700     -0.29163800
C          -4.18555600      0.66859500      0.06237200
C          -5.18305200     -0.17215200      0.38360900
H           0.28818600      1.21186700     -0.29779600
H          -0.29109000     -0.36009400     -0.91825500
H          -0.18058000      1.06572100     -1.99292400
H          -2.07298500      2.19036000     -0.62225200
H          -2.62540700     -0.81980500     -0.28591400
H          -4.37989000      1.74908500      0.06538000
H          -6.17546700      0.20003200      0.64761500
H          -5.03454000     -1.25711400      0.39573800
