19
b3lypvdz=-273.751655671871 
C           0.57202800      1.43546000     -0.02986500
C          -0.47908200      0.77940500     -0.94924000
C           0.65519300      2.95923900     -0.14485600
C          -1.90190800      1.14456100     -0.63368400
C          -2.85847100      0.27178400     -0.26503200
C          -4.23640400      0.63679400      0.03849400
C          -5.20012900     -0.23269000      0.38525100
H           1.55760800      1.00080300     -0.27599700
H           0.35832700      1.15072800      1.01674600
H          -0.37096800     -0.31779300     -0.89487900
H          -0.25038500      1.06946400     -1.99466100
H          -0.28579300      3.45033700      0.15425600
H           0.87850800      3.27020600     -1.18063700
H           1.45012700      3.36376600      0.50177500
H          -2.17321800      2.20604800     -0.71124500
H          -2.60504500     -0.79417900     -0.18486600
H          -4.48194600      1.70448600     -0.02941100
H          -6.21656100      0.10245700      0.60351200
H          -4.99658300     -1.30577500      0.46613900
