16
b3lypvdz=-234.464815995482 
C          -2.06616200      1.24071800     -1.02903200
C          -0.72850300      3.33027800     -0.51181500
C          -2.08032600      2.74317000     -0.96009400
C          -2.95112700      0.36710100     -0.50313300
C          -4.14682900      0.67481700      0.27749400
C          -4.99982900     -0.25950900      0.73547900
H          -1.22378700      0.81708900     -1.59272800
H          -0.47867900      3.01847600      0.51651300
H           0.09015400      2.99096800     -1.16922700
H          -0.74396500      4.43300900     -0.54254600
H          -2.30844000      3.13426200     -1.97156500
H          -2.88204100      3.10598300     -0.29766400
H          -2.76788400     -0.70051700     -0.68037500
H          -4.36190100      1.72694200      0.49439300
H          -5.88758900      0.01505800      1.31112800
H          -4.83879400     -1.32514300      0.53826900
