12
b3lypvdz=-194.233974973833 
O          -7.58165800     -0.28253800     -1.38042900
C          -7.53319900     -1.92114800      0.46252800
C          -6.14392700     -2.51229900      0.18714700
C          -7.66236400     -0.45930000      0.03173200
H          -6.67308100     -0.47662100     -1.64856900
H          -8.29936100     -2.50903100     -0.07248100
H          -7.76033500     -2.00003600      1.54250000
H          -5.35372400     -1.93069300      0.69443900
H          -5.91958000     -2.52271400     -0.89424100
H          -6.07405200     -3.55229600      0.54539500
H          -6.89979200      0.16072900      0.54926800
H          -8.64982900     -0.06735500      0.32581200
