18
b3lypvdz=-235.700654545076 
C           0.59709600      1.36188900      0.01775100
C           1.91233900      0.70744500     -0.46414400
C          -0.44091100      0.72453900     -0.92759400
C           1.53647800     -0.75367200     -0.83712500
C          -0.00720200     -0.75378900     -1.05430900
C           0.30822400      1.07566800      1.49921500
H           0.62773100      2.45667000     -0.12076900
H           2.71893000      0.76331600      0.28567900
H           2.27278200      1.23791900     -1.36197600
H          -1.47811600      0.83977500     -0.56936000
H          -0.38013500      1.21690900     -1.91391000
H           1.81490800     -1.45364400     -0.03260400
H           2.07884700     -1.08487500     -1.73655200
H          -0.29847100     -1.18378500     -2.02572100
H          -0.50199100     -1.36667100     -0.28347600
H           1.06903800      1.54472900      2.14497000
H          -0.67369300      1.48221000      1.79696000
H           0.30434500     -0.00433300      1.72426600
