19
b3lypvdz=-273.750898474823 
C          -2.00671500      0.94634200     -0.95667600
C          -2.86465200      0.28564900     -0.16123300
C          -4.24637500      0.68476200      0.07324100
C          -5.12265000     -0.02365800      0.81052800
C          -6.56652900      0.34691300      1.01571800
C          -7.54427300     -0.39082700      0.07458300
C          -7.49693600     -1.91573800      0.17299100
H          -0.98426200      0.59369500     -1.11119300
H          -2.30702500      1.85829000     -1.48257600
H          -2.53042000     -0.62580200      0.34992500
H          -4.57630500      1.61745600     -0.40309900
H          -4.77434300     -0.95584600      1.27324700
H          -6.85418300      0.13243200      2.06236200
H          -6.69242200      1.43296200      0.86351200
H          -7.33050300     -0.08270800     -0.96519300
H          -8.56717400     -0.03904700      0.30122900
H          -6.50558400     -2.31021300     -0.10563300
H          -8.23378500     -2.37899800     -0.50214700
H          -7.72036200     -2.26346200      1.19701400
