16
b3lypvdz=-234.458809052026 
C          -4.34553000      0.44832800     -0.08626700
C          -5.25903900     -0.26040500      0.60025000
C          -6.66081000      0.27579100      0.83574300
C          -4.98628500     -1.61652800      1.12437400
C          -7.67729900     -0.23879000     -0.19519100
C          -3.79146400     -2.09656600      1.49864300
H          -3.36376500      0.03568100     -0.32861600
H          -4.56742300      1.45901500     -0.43867500
H          -6.99710600     -0.00308700      1.84986300
H          -6.63496700      1.37753900      0.79765400
H          -5.86641700     -2.26028600      1.24669400
H          -7.39507000      0.07963000     -1.21233800
H          -7.73977300     -1.34022200     -0.19707300
H          -8.68489900      0.15340300      0.02113900
H          -3.67967100     -3.11447800      1.87829400
H          -2.88767900     -1.48202600      1.45170500
