10
b3lypvdz=-155.885593992618 
C          -4.20181100      0.62739100      0.05087500
C          -5.20726000     -0.19043400      0.39716200
C          -4.00317400     -2.13112200      1.43168600
C          -5.07288500     -1.59020300      0.82845200
H          -3.16285600      0.28312600      0.03942900
H          -4.39056500      1.66052900     -0.24971400
H          -6.23346400      0.19227500      0.33607400
H          -3.97864700     -3.18930600      1.70196900
H          -3.12507700     -1.53210700      1.68929300
H          -5.94706100     -2.22604900      0.64337400
