12
b3lypvdz=-157.114646143066 
C           6.35611900     -1.37375800     -0.48224600
C           3.19299000      0.78495300      0.42723000
C           4.39833300      0.20594500     -0.26311000
C           5.15138300     -0.79438000      0.20890000
H           7.25905200     -1.27151800      0.14747100
H           6.22080800     -2.45387400     -0.67745400
H           6.55332900     -0.87603300     -1.44526200
H           2.28891500      0.68242800     -0.20070000
H           3.32980500      1.86536200      0.62008100
H           2.99692500      0.28919500      1.39151900
H           4.66003800      0.65286400     -1.23231700
H           4.88950300     -1.24168300      1.17788800
