21
b3lypvdz=-274.963087965887 
C           0.61805600      1.30599700     -0.14351800
C           1.98897000      0.73214000     -0.55415000
C          -0.49406600      0.73286700     -1.05355000
C           0.63192800      2.83909300     -0.13297000
C           3.09704400      0.90291300      0.48673000
C          -1.89693600      1.13557000     -0.68822300
C          -2.84439900      0.30035600     -0.25067800
H           0.40085900      0.95469800      0.88574800
H           1.87364500     -0.34299100     -0.78016100
H           2.29701200      1.20620800     -1.50635200
H          -0.42862400     -0.36939800     -1.03366500
H          -0.28101900      1.04632100     -2.09573800
H          -0.32709900      3.26352600      0.20247400
H           0.83969600      3.23164200     -1.14582700
H           1.40886900      3.23575000      0.53818000
H           3.29709100      1.96246900      0.71558200
H           4.04255500      0.45827300      0.13587700
H           2.82954100      0.40604800      1.43548900
H          -2.14909700      2.19884400     -0.79333000
H          -3.84684700      0.65564700      0.00279800
H          -2.64948000     -0.77117300     -0.12731600
