21
b3lypvdz=-274.964238358305 
C           0.66056100      1.22483700     -0.00339700
C           1.92184600      0.43538200     -0.39703900
C          -0.48896200      0.91475700     -0.97049000
C           3.18550700      0.74980500      0.42924200
C           0.23173500      0.97780200      1.44886600
C           4.44302500      0.29797100     -0.26203200
C           5.26381600     -0.67122200      0.15233800
H           0.90557400      2.30071300     -0.10728000
H           1.71720800     -0.65036300     -0.33586400
H           2.13686000      0.64453400     -1.46148800
H          -0.78691000     -0.14728300     -0.90491500
H          -1.37934500      1.52338300     -0.74365300
H          -0.20063800      1.11508700     -2.01632900
H           3.24047400      1.84386700      0.58857300
H           3.12033400      0.28687100      1.42790200
H           1.01252700      1.27082800      2.16856700
H          -0.67595700      1.55290300      1.69568300
H           0.00435300     -0.09037600      1.61794700
H           4.67132800      0.81716900     -1.20339600
H           6.15262000     -0.95333300     -0.41818800
H           5.07964500     -1.21643200      1.08395400
