15
b3lypvdz=-196.399639113274 
C           3.24712300      0.81155500      0.45210300
C           3.50769600      2.27241100      0.86602500
C           4.42732100      0.19798500     -0.25701600
C           5.15322200     -0.83186500      0.19410200
C           6.35825500     -1.41083400     -0.49741100
H           2.36473200      0.77892900     -0.21620100
H           2.98709900      0.21095300      1.34137100
H           3.75182900      2.89896100     -0.00963500
H           4.35627900      2.33770700      1.56787600
H           2.62405900      2.71441400      1.35807000
H           4.71100000      0.66779300     -1.20998400
H           4.86880000     -1.30421400      1.14465300
H           7.25005000     -1.35128200      0.15322400
H           6.20603000     -2.47943100     -0.73810800
H           6.58490400     -0.87958300     -1.43556800
