18
b3lypvdz=-235.685229422952 
C           0.67127300      1.37742200      0.07888800
C           1.90605700      0.72493900     -0.55719500
C           3.15678100      0.79461100      0.33765700
C           4.38999200      0.21184100     -0.30451100
C           5.11372100     -0.79844400      0.19317900
C           6.35718800     -1.36971400     -0.43338300
H          -0.20831800      1.29254700     -0.58098000
H           0.84242300      2.45026300      0.27703900
H           0.41727300      0.89704100      1.03947000
H           1.68756100     -0.33324500     -0.78790200
H           2.12081700      1.21398200     -1.52565700
H           3.35145500      1.85675800      0.58847400
H           2.95469400      0.28000800      1.29389000
H           4.69988100      0.66916600     -1.25497100
H           4.80091900     -1.25375200      1.14296000
H           7.22127800     -1.26971000      0.24912400
H           6.23778700     -2.44848500     -0.64447000
H           6.60901700     -0.86292800     -1.37831400
