17
b3lypvdz=-272.530647517265 
C          -1.85579400      1.13769000     -0.65563900
C          -2.82247200      0.26487600     -0.31820000
C          -4.17630900      0.65255200      0.05320600
C          -5.17485500     -0.15297200      0.50002000
C          -6.57195900      0.38301600      0.70814800
C          -5.01934700     -1.59235600      0.79447500
C          -4.01903000     -2.16596900      1.48092100
H          -0.86522700      0.79237000     -0.96005200
H          -2.02546400      2.21951000     -0.63450300
H          -2.59985000     -0.80634900     -0.34691700
H          -4.41744300      1.71272200     -0.09526700
H          -7.29937400     -0.16626800      0.08389700
H          -6.89856400      0.24774100      1.75506500
H          -6.64189300      1.45127200      0.45268700
H          -5.85268000     -2.22646800      0.46078000
H          -4.00662200     -3.24311900      1.66700700
H          -3.19951700     -1.57694600      1.89977200
