21
b3lypvdz=-274.970519039314 
C           1.95807600      0.75762000     -0.44527400
C           3.21520700      0.81611700      0.44170700
C           3.50709200      2.26699600      0.87452100
C           4.41017400      0.21766800     -0.26141300
C           5.13097600     -0.82297000      0.17172500
C           6.33303100     -1.41308900     -0.51840400
C           6.12904100     -2.88152000     -0.93528900
H           1.08335700      1.17640600      0.08157900
H           1.71981700     -0.27794000     -0.73803600
H           2.09938500      1.34387300     -1.37065100
H           3.01938400      0.21696900      1.35054100
H           3.74566300      2.89726700     -0.00086100
H           4.36445300      2.31491900      1.56519600
H           2.63345500      2.71454200      1.37960100
H           4.69897000      0.70837200     -1.20363800
H           4.83410900     -1.31240800      1.11132800
H           7.20182200     -1.35496800      0.16595600
H           6.59400700     -0.80325200     -1.40097400
H           7.04055400     -3.30020200     -1.39452700
H           5.30714000     -2.97462300     -1.66500400
H           5.87288600     -3.51237900     -0.06628500
