17
b3lypvdz=-197.619814690877 
C           0.62068500      1.45276600      0.02899600
C          -0.29081100      0.71087100     -0.96627400
C          -0.10871000     -0.80802700     -1.01655900
C           0.46439100      2.96976900     -0.12550100
C           0.37214200      1.03759600      1.48551500
H           1.66732000      1.19093900     -0.22617900
H          -1.34607100      0.94876300     -0.72714800
H          -0.10782200      1.12581200     -1.97445900
H           0.93618300     -1.07686500     -1.25117900
H          -0.74788100     -1.25907600     -1.79222700
H          -0.36972700     -1.29108500     -0.06072200
H          -0.56448100      3.28634000      0.12606500
H           0.67182500      3.29573900     -1.15867400
H           1.14821200      3.51862200      0.54158300
H           1.02451500      1.59990500      2.17263500
H          -0.67351600      1.24742000      1.77717400
H           0.56144600     -0.03448900      1.65445600
