17
b3lypvdz=-197.62153908155 
C           0.58037900      1.35660400     -0.03093600
C           1.96064500      0.80442500     -0.43214100
C          -0.51057300      0.74563200     -0.93193300
C           0.57954900      2.88749200     -0.18740500
C           0.29745600      0.99292700      1.43817000
H           2.00292600     -0.29190700     -0.30838600
H           2.75901700      1.24320800      0.18963600
H           2.19219000      1.03543700     -1.48629600
H          -0.53488300     -0.35466600     -0.84448300
H          -1.51002100      1.12562400     -0.65754500
H          -0.33961100      0.99405900     -1.99399900
H          -0.39857000      3.31681400      0.09071700
H           0.79565600      3.18393100     -1.22855900
H           1.34268700      3.35477800      0.45690200
H           1.04609900      1.44236000      2.11144000
H          -0.69572600      1.35561400      1.75513100
H           0.32368000     -0.10003400      1.59018700
