15
b3lypvdz=-196.39519483877 
C           4.40025100      0.21232000     -0.23519600
C           5.13245800     -0.82126000      0.19163400
C           6.35033500     -1.37947000     -0.50463500
C           7.59428800     -1.26583000      0.39622400
C           6.11668300     -2.84283300     -0.92974800
H           3.52853200      0.56230200      0.32602800
H           4.64413800      0.74417900     -1.16139800
H           4.84750800     -1.32149700      1.12885200
H           6.53279900     -0.77921000     -1.41525600
H           7.78677500     -0.21881600      0.68344700
H           8.49127600     -1.64891900     -0.12126300
H           7.46894000     -1.85138500      1.32427700
H           7.00647600     -3.25278900     -1.43958900
H           5.26028100     -2.92981800     -1.61834000
H           5.91035900     -3.48227400     -0.05273800
