18
b3lypvdz=-235.680053408466 
C           0.63658700      1.03104300     -0.05188700
C           2.04080100      0.66172000     -0.54238200
C          -0.47629400      0.61548200     -1.03235100
C           3.14644500      0.99352900      0.46082300
C          -1.82622100      1.16581700     -0.66138100
C          -2.88826400      0.44726400     -0.28546900
H           0.58512900      2.12326700      0.11818700
H           0.44484100      0.56226700      0.93099600
H           2.07251500     -0.41787200     -0.78005600
H           2.23769500      1.18569600     -1.49621700
H          -0.52483400     -0.48629600     -1.09617600
H          -0.20421000      0.97936800     -2.04199600
H           3.16053400      2.06965300      0.70653400
H           4.14031600      0.72904400      0.06314100
H           3.00935500      0.44225900      1.40637400
H          -1.91885800      2.26060900     -0.69592700
H          -3.83493700      0.92435800     -0.01837500
H          -2.85110100     -0.64640800     -0.22773900
