20
b3lypvdz=-236.900137139677 
C           0.58416300      1.41325800      0.01773900
C           1.88390700      0.75431200     -0.50244700
C           1.60541000     -0.71503100     -0.86618100
C           0.48578700      2.93654400     -0.11185000
C           3.08195900      0.82031400      0.47020200
C           3.62319900      2.21131600      0.82682100
H          -0.25953600      0.97325200     -0.54366800
H           0.42492400      1.11363700      1.07164000
H           2.18266500      1.28094700     -1.43213600
H           0.83022900     -0.79838900     -1.64632700
H           1.24572600     -1.27581700      0.01591500
H           2.51077700     -1.22340600     -1.23714300
H          -0.52159100      3.28770700      0.16788400
H           0.67128500      3.25705300     -1.15212600
H           1.20279000      3.47030600      0.52752600
H           3.90438500      0.23419800      0.02002800
H           2.81020400      0.28175600      1.39923400
H           3.84060300      2.80495800     -0.07765400
H           4.56131800      2.12796400      1.40045400
H           2.92069500      2.79212300      1.44408700
