18
b3lypvdz=-235.702731267523 
C           0.56952800      1.41156800     -0.05525400
C           1.89518600      0.74756200     -0.48217600
C          -0.46072900      0.71825500     -0.96217100
C           1.53773700     -0.72405000     -0.82474700
C          -0.01281100     -0.75703800     -0.98886600
C           0.57388900      2.93667400     -0.13813800
H           0.35117700      1.11686700      0.99048100
H           2.67608800      0.82759800      0.29172500
H           2.28118700      1.26741800     -1.37790500
H          -1.49672300      0.84462200     -0.60530700
H          -0.40692700      1.15885000     -1.97544500
H           1.85933900     -1.40842800     -0.02334200
H           2.05411400     -1.05632400     -1.73919600
H          -0.33361300     -1.27516900     -1.90635700
H          -0.47247100     -1.30190700     -0.14716100
H          -0.40475900      3.36083200      0.14474700
H           0.80332800      3.27177400     -1.16568800
H           1.32946000      3.37859500      0.53170000
