6
b3lypvdz=-78.533094805385 
C          -1.84726200      1.12946100     -0.61245200
C          -2.83433800      0.25813900     -0.39944800
H          -0.84072600      0.79352400     -0.88199200
H          -2.01122500      2.20888800     -0.52488700
H          -3.84087400      0.59407600     -0.12990800
H          -2.67037500     -0.82128800     -0.48701200
