23
b3lypvdz=-276.183026020866 
C           0.62360600      1.20969500     -0.06043500
C           2.02033000      0.67059600     -0.44739500
C           0.53816500      2.75687000     -0.15675400
C           3.18900000      1.12320400      0.43255700
C           0.17596600      0.69917700      1.32026900
C          -0.70047500      3.31623600     -0.87809200
C          -2.06287800      2.98499600     -0.26178800
H          -0.07485900      0.78891600     -0.80928300
H           1.98124700     -0.43419800     -0.45413200
H           2.22539400      0.97405800     -1.49102500
H           1.42176800      3.13467100     -0.70092800
H           0.60479300      3.19668900      0.85540900
H           3.27780800      2.22240800      0.46762100
H           4.14135700      0.72848800      0.04220700
H           3.09228900      0.76476100      1.47085200
H           0.81240800      1.10930400      2.12258800
H          -0.85848300      1.00484100      1.54323400
H           0.22586800     -0.40158900      1.38272600
H          -0.68833700      2.96635400     -1.92760500
H          -0.59553300      4.41596900     -0.92445400
H          -2.26721400      1.90126900     -0.26854300
H          -2.87213900      3.47643600     -0.82634300
H          -2.13318100      3.33115000      0.78391300
