21
b3lypvdz=-274.969911970742 
C           3.24502900      0.81525800      0.47162000
C           3.46874300      2.29628300      0.82582600
C           4.44089700      0.20615600     -0.20837100
C           5.15882900     -0.83608300      0.22667100
C           6.38074000     -1.38209800     -0.46179400
C           7.64207600     -1.34361500      0.42058500
C           8.91471500     -1.75635200     -0.32272800
H           2.36794700      0.73796500     -0.19948900
H           2.99254400      0.24064100      1.37969900
H           3.72764800      2.88377100     -0.07240900
H           4.29898400      2.41025600      1.54273600
H           2.56728300      2.74770600      1.27240000
H           4.74817200      0.69249600     -1.14601100
H           4.86653100     -1.32875300      1.16540400
H           6.20129900     -2.42903600     -0.77749200
H           6.56301200     -0.80725500     -1.38743300
H           7.76425900     -0.32076300      0.82047100
H           7.49144400     -1.99654100      1.30017300
H           9.09986000     -1.09527600     -1.18613300
H           9.79714300     -1.70069900      0.33579400
H           8.84674200     -2.78846100     -0.70902200
