19
b3lypvdz=-273.751999601652 
C          -0.40401600      0.82948700     -0.84316500
C           1.52366500     -0.82271600     -0.99382500
C           0.02358700     -0.63689400     -0.76279000
C          -1.84909100      1.13441700     -0.55939400
C          -2.82951000      0.25234100     -0.28898500
C          -4.20685100      0.63940900     -0.00931800
C          -5.20782900     -0.21645300      0.25369400
H           0.21818000      1.42800300     -0.14904200
H          -0.14888100      1.23133800     -1.84491900
H           2.11798400     -0.27636600     -0.24253100
H           1.81245800     -1.88442800     -0.93677900
H           1.82817900     -0.44558400     -1.98566900
H          -0.54207500     -1.22904900     -1.50406500
H          -0.25057000     -1.04533600      0.22613200
H          -2.11345300      2.20067200     -0.57390900
H          -2.61056800     -0.82118800     -0.26702600
H          -4.41550200      1.71714400     -0.01322000
H          -6.21879000      0.14061900      0.46189200
H          -5.04391700     -1.29891700      0.27282000
