14
b3lypvdz=-158.333931771436 
C           0.37292900      1.43437500      0.02954000
C          -0.82590400      3.63524500     -0.57595800
C          -0.16983900      0.54628100     -1.09554800
C           0.50886800      2.91726000     -0.35294200
H           1.36119400      1.05314300      0.34357700
H          -0.28087900      1.34695600      0.91784500
H          -1.44901500      3.60662500      0.33556400
H          -1.40877800      3.17303100     -1.38981500
H          -0.67081100      4.69375900     -0.84385100
H          -0.19116500     -0.51345100     -0.78994300
H          -1.19660400      0.82523600     -1.38500000
H           0.46062400      0.62259400     -1.99865700
H           1.12649300      2.99547700     -1.26838200
H           1.07528600      3.44236700      0.43686900
