21
b3lypvdz=-274.97020836101 
C           0.66667600      1.33772500      0.06886700
C           1.92576500      0.71128900     -0.54452400
C           3.17212000      0.83643300      0.35122100
C           4.41147200      0.26013400     -0.28483500
C           5.13301400     -0.75533500      0.20613200
C           6.34941500     -1.35644400     -0.45031800
C           7.60803700     -1.29541400      0.43197700
H          -0.20464700      1.20696500     -0.59459300
H           0.79968800      2.42020000      0.24163700
H           0.42196800      0.87152400      1.03880300
H           1.74152500     -0.35835700     -0.75145100
H           2.13035100      1.18350700     -1.52347400
H           3.34310300      1.90847000      0.57531500
H           2.98178800      0.33924000      1.31894900
H           4.71039100      0.70714000     -1.24360900
H           4.83157400     -1.20643400      1.16241100
H           6.13785400     -2.41678500     -0.69024800
H           6.54422200     -0.85092900     -1.41199100
H           7.88283000     -0.25177600      0.65860500
H           8.46665400     -1.77441200     -0.06860900
H           7.45110000     -1.81694100      1.39193300
