18
b3lypvdz=-235.685414104913 
C           3.18274600      0.77603500      0.42647400
C           4.41777100      0.23815900     -0.24197400
C           5.16152200     -0.78092900      0.20305000
C           6.36612700     -1.36422600     -0.49558300
C           7.62796800     -1.27670200      0.38252700
C           6.08982600     -2.82376700     -0.90684100
H           2.30782800      0.70124500     -0.24498300
H           3.29274700      1.84609200      0.68179100
H           2.94829500      0.22730700      1.35227800
H           4.70612600      0.72623600     -1.18368100
H           4.87920400     -1.27084800      1.14743800
H           6.54840000     -0.77482100     -1.41347100
H           7.85709400     -0.23371400      0.65523400
H           8.50363000     -1.69463700     -0.14361400
H           7.50035500     -1.84850500      1.31872400
H           6.96366200     -3.26769700     -1.41439200
H           5.22650100     -2.89087400     -1.58846800
H           5.86639900     -3.44505300     -0.02110800
