17
b3lypvdz=-272.530997848983 
C          -1.81421900      1.22336500     -0.54783900
C          -2.75823500      0.29431400     -0.31636400
C          -4.15557500      0.61070000     -0.05530200
C          -5.13729600     -0.23608800      0.33805800
C          -5.04051600     -1.66463500      0.69316200
C          -6.23332500     -2.50503700      0.29780800
C          -4.00301200     -2.18634500      1.37566200
H          -0.78113200      0.94060500     -0.76249300
H          -2.04876900      2.29297000     -0.52277400
H          -2.48051300     -0.76391800     -0.34011700
H          -4.44091400      1.65417100     -0.23442700
H          -6.15349600      0.17622800      0.38245900
H          -7.15596600     -2.09159700      0.74227500
H          -6.38323500     -2.50057700     -0.79599600
H          -6.12995600     -3.54669000      0.63541000
H          -3.97228000     -3.24884900      1.63097800
H          -3.18065900     -1.56431600      1.73210000
