21
b3lypvdz=-274.969082573305 
C           0.66492000      1.15652200      0.14605300
C           1.99325300      0.84804100     -0.55128400
C           3.23323600      0.93266300      0.37244500
C           3.57286700      2.38754800      0.74912700
C           4.42909200      0.26915800     -0.26868600
C           5.05717900     -0.81649800      0.19870700
C           6.25549200     -1.47060000     -0.42521000
H          -0.18153400      1.03962000     -0.55054000
H           0.62595300      2.18279100      0.54723100
H           0.49503000      0.46835300      0.99126100
H           1.94378500     -0.16943600     -0.97594000
H           2.13800100      1.53020900     -1.41000700
H           2.99410600      0.37744000      1.29876500
H           3.87902300      2.95806100     -0.14579900
H           4.40686700      2.42645300      1.46807300
H           2.71180700      2.90760300      1.19946200
H           4.79813300      0.73683900     -1.19345200
H           4.68044400     -1.27617800      1.12284400
H           7.11031900     -1.48213900      0.27489700
H           6.05027000     -2.52502900     -0.68480300
H           6.57405800     -0.95122000     -1.34214300
