21
b3lypvdz=-274.96965033326 
C           1.89591900      0.66126500     -0.30159400
C           1.27375300     -0.72526600     -0.49689600
C          -0.06074100     -0.67940900     -1.24247400
C           3.22721900      0.65699100      0.47292200
C           4.40847500      0.13369100     -0.29989600
C           5.25563800     -0.81712600      0.11382400
C           6.49059300     -1.26570200     -0.61047100
H           1.17679400      1.30464900      0.23710700
H           2.04951200      1.14278000     -1.28673100
H           1.12508200     -1.19223100      0.49508600
H           1.98357300     -1.38054900     -1.03316100
H           0.05704400     -0.24162600     -2.24895000
H          -0.49720200     -1.68418000     -1.36339800
H          -0.79785100     -0.05918900     -0.70371500
H           3.45118400      1.69841500      0.77417700
H           3.11179800      0.08445700      1.41051200
H           4.59795700      0.62043800     -1.26797800
H           5.06142500     -1.29996600      1.08141100
H           7.39060900     -1.08993800      0.00709000
H           6.47103500     -2.34946200     -0.82499900
H           6.62518400     -0.73044300     -1.56356800
