14
b3lypvdz=-158.333411429817 
C           0.66516700      1.39256400      0.05145600
C           1.92996200      0.69752500     -0.48530700
C           0.26872900      1.00533200      1.48336800
C           3.17438200      0.83720700      0.40059200
H          -0.17387900      1.15979400     -0.62963000
H           0.80456000      2.49002300     -0.00176200
H           1.71496200     -0.37775000     -0.63779800
H           2.15537900      1.10849200     -1.48623900
H           1.02194600      1.33084800      2.21981500
H          -0.68776100      1.47616700      1.76584400
H           0.14695700     -0.08806000      1.58647000
H           3.40171400      1.89663000      0.61588000
H           4.05719100      0.39906300     -0.09484800
H           3.05029200      0.31736300      1.36465800
