21
b3lypvdz=-274.969756101386 
C           1.91642700      0.73747000     -0.47608200
C           1.40587500     -0.67298800     -0.78874200
C           3.17967800      0.75494000      0.41014500
C           4.40541600      0.20637000     -0.27034900
C           5.14326800     -0.82430200      0.15892700
C           6.36844600     -1.37969600     -0.51529700
C           6.20039300     -2.85276800     -0.92785800
H           1.12299200      1.31970000      0.02530000
H           2.13427000      1.27469100     -1.41864900
H           0.51709800     -0.64605500     -1.44025800
H           1.12464900     -1.20725400      0.13583100
H           2.17828800     -1.27629300     -1.29434000
H           3.37816300      1.80030100      0.71533400
H           2.98671200      0.18967500      1.34024300
H           4.70327700      0.71593400     -1.19907100
H           4.83876500     -1.33289400      1.08574100
H           7.22916400     -1.29903900      0.17676800
H           6.62268900     -0.76508700     -1.39655200
H           7.12685000     -3.25967600     -1.36623000
H           5.39393800     -2.96520300     -1.67172400
H           5.93654200     -3.48092300     -0.05923800
