21
b3lypvdz=-274.97066289577 
C           0.72860700      1.49117900      0.05114900
C           1.86600500      0.65367400     -0.54947500
C           1.39882100     -0.77573000     -0.85496100
C           3.10942700      0.66279600      0.37151200
C           4.37176000      0.16181800     -0.27503100
C           5.14762900     -0.83232500      0.17388900
C           6.44063000     -1.27786800     -0.44739100
H          -0.14306400      1.52436900     -0.62318800
H           1.04920600      2.52948800      0.24143600
H           0.38919600      1.06655800      1.01262300
H           2.16652300      1.12980200     -1.50401600
H           0.55997700     -0.78011600     -1.57105400
H           1.04850700     -1.27332700      0.06785300
H           2.21275900     -1.38722300     -1.27651200
H           3.28044800      1.70642000      0.70087500
H           2.89559700      0.07904800      1.28611400
H           4.67934600      0.69297600     -1.18814800
H           4.84156300     -1.36303500      1.08640600
H           7.27931400     -1.16802600      0.26454600
H           6.41145800     -2.34577300     -0.73081400
H           6.68249100     -0.69310400     -1.34881400
