14
b3lypvdz=-158.33378937798 
C           8.96972100     -1.65671900     -0.30276400
C           6.39962800     -1.41290400     -0.50733000
C           7.64396100     -1.31718200      0.39155000
C           5.99977500     -2.84448400     -0.89216500
H           9.14508100     -0.99060300     -1.16611500
H           9.82240200     -1.53494700      0.38686100
H           8.99475900     -2.69330800     -0.68113600
H           5.55067400     -0.92944200      0.01036600
H           6.57118700     -0.81301000     -1.42250500
H           7.71380800     -0.29103400      0.79698500
H           7.50018800     -1.97639500      1.26967400
H           6.79108000     -3.36154000     -1.46265700
H           5.08909700     -2.85741600     -1.51469500
H           5.79324000     -3.45121400      0.00773100
