14
b3lypvdz=-158.333836742846 
C           0.55407600      1.45076600      0.05180700
C          -0.33607600      0.70447000     -0.95268900
C          -0.07382100     -0.80314900     -1.04598700
C           0.33733600      1.05555100      1.51723500
H           1.61564200      1.28795700     -0.21874000
H           0.37374400      2.53605100     -0.05713600
H          -1.39773600      0.87644500     -0.68818400
H          -0.19329900      1.15655700     -1.95103400
H           0.97776100     -1.00679400     -1.31606300
H          -0.70996500     -1.27328300     -1.81318100
H          -0.27866200     -1.31945200     -0.09299500
H           0.96640200      1.65916000      2.19084200
H          -0.71437500      1.20994400      1.81854700
H           0.58587400     -0.00342500      1.70077800
