23
b3lypvdz=-276.183521266415 
C           0.69614900      1.27128000     -0.41996000
C           2.14012900      0.77553400     -0.63005800
C           0.50448500      2.80234500     -0.37435000
C           3.09693300      0.84954000      0.57274500
C          -0.85479300      3.29536300     -0.89342600
C          -2.06094400      2.85374100     -0.06162000
C           3.52089500      2.25636100      1.01172700
H           0.08055800      0.87130000     -1.24751000
H           0.28981300      0.80360600      0.49606000
H           2.08845700     -0.28123300     -0.94837300
H           2.59104300      1.31942600     -1.48234200
H           1.29800800      3.27875400     -0.97728600
H           0.64515400      3.17757700      0.65452500
H           4.00593000      0.27899400      0.30630900
H           2.64650000      0.30998300      1.42726600
H          -0.98648200      2.95334200     -1.93725200
H          -0.83585000      4.39947200     -0.93208400
H          -2.17669500      1.75678600     -0.05344200
H          -2.99522200      3.28440900     -0.45760300
H          -1.96590000      3.18598500      0.98739000
H           3.95661900      2.81999300      0.16790000
H           4.28481200      2.21313900      1.80603300
H           2.67730200      2.84690200      1.40145000
