13
b3lypvdz=-232.295417760808 
O          -7.38627800     -0.14327600     -1.38988600
C          -4.31966400      0.53357700     -0.19613900
C          -5.18101500     -0.10751600      0.60372600
C          -6.59240100      0.33560100      0.88210300
C          -7.59487200     -0.41117300     -0.01764800
H          -6.44435200     -0.30120000     -1.56679500
H          -3.32305200      0.13321300     -0.40192800
H          -4.57440100      1.49333900     -0.65829100
H          -4.87719200     -1.06525700      1.04672300
H          -6.85449200      0.14216800      1.93748300
H          -6.69732200      1.41785300      0.69451200
H          -7.55132800     -1.50004400      0.20139700
H          -8.61853100     -0.07428600      0.21254200
