17
b3lypvdz=-197.619986163077 
C           6.40557200     -1.39342000     -0.47321800
C           7.65658300     -1.28366000      0.42123700
C           6.05763900     -2.81928500     -0.92769200
C           7.82502100      0.14949800      0.95333400
C           8.93793000     -1.73432300     -0.29746400
H           5.54333500     -0.97689700      0.08066900
H           6.53994700     -0.74585300     -1.36103200
H           7.49832600     -1.95084700      1.29197700
H           6.83220500     -3.24368800     -1.58801700
H           5.10799100     -2.83434100     -1.48900200
H           5.94426500     -3.49564200     -0.06240300
H           8.67647400      0.22105300      1.65172600
H           8.01099000      0.85693200      0.12545800
H           6.92318600      0.49055700      1.49055800
H           9.12129700     -1.11961100     -1.19680100
H           9.81447700     -1.62855900      0.36451300
H           8.88956200     -2.78841400     -0.61624200
