21
b3lypvdz=-274.963707760463 
C           0.65006300      0.91990000      0.03903600
C           2.05786200      0.57244600     -0.46258600
C          -0.45552600      0.73695800     -1.01775100
C           3.17539300      0.90395000      0.54094900
C          -1.80238200      1.19352700     -0.52584300
C           3.48283800      2.40167400      0.66650800
C          -2.88504700      0.42511900     -0.37338100
H           0.63041100      1.96604700      0.39551800
H           0.41215300      0.29502000      0.91973800
H           2.09407400     -0.50514900     -0.70569100
H           2.25649000      1.10616200     -1.41205200
H          -0.50903100     -0.31955500     -1.33600500
H          -0.17997400      1.32374600     -1.91531500
H           4.09676700      0.37706200      0.23468800
H           2.90448700      0.49464700      1.53239300
H          -1.87084600      2.25501000     -0.25000300
H           3.82343500      2.81750900     -0.29786900
H           4.27795500      2.58765000      1.40723800
H           2.59947900      2.98005700      0.98568000
H          -3.82360500      0.83836700      0.00638300
H          -2.87699700     -0.64004800     -0.62963400
