19
b3lypvdz=-273.753751721862 
C           0.64799200      1.28836700      0.05226900
C          -0.46353600      0.75085300     -0.86206900
C          -1.85256700      1.25565800     -0.53097800
C          -2.03435000      2.75148300     -0.56039400
C          -2.84058200      0.37666600     -0.24179700
C          -4.23215000      0.66978600      0.06896600
C          -5.16167800     -0.26855400      0.31903300
H           1.61840000      0.84273900     -0.22005500
H           0.75273000      2.38260700     -0.03053800
H           0.44728000      1.04665600      1.10992800
H          -0.46467500     -0.35120400     -0.82770200
H          -0.21971900      1.03464100     -1.90507400
H          -1.66268000      3.16976100     -1.51373200
H          -3.07863600      3.06414000     -0.43556800
H          -1.44637200      3.24455900      0.23314800
H          -2.58128700     -0.68993600     -0.24954700
H          -4.53728300      1.72082800      0.09975000
H          -6.19529300      0.00166800      0.54542600
H          -4.91049300     -1.33441800      0.30863600
