17
b3lypvdz=-197.61812699156 
C           0.65101800      1.42260200      0.11293900
C           1.85867500      0.69421200     -0.52256500
C           1.55038400     -0.77425900     -0.85266400
C           3.13578700      0.81922500      0.32214300
C           0.30937600      1.03701700      1.55901900
H          -0.23346200      1.24614600     -0.52686300
H           0.83917100      2.51142800      0.07138200
H           2.05710800      1.20838800     -1.48250100
H           0.70373400     -0.86051400     -1.55456200
H           1.29345000     -1.35141300      0.05254600
H           2.42052400     -1.26590100     -1.32019100
H           3.34785300      1.86887500      0.58875900
H           4.00929800      0.42916700     -0.22693400
H           3.06025700      0.24758700      1.26258800
H           1.12384800      1.29360900      2.25687200
H          -0.58978600      1.57418800      1.90263000
H           0.10846500     -0.04225600      1.66780100
