14
b3lypvdz=-158.335352397561 
C           0.57825200      1.36347300     -0.32619500
C           1.98151500      0.76104300     -0.21383800
C          -0.82914200      3.48271300     -0.59927700
C           0.57755200      2.88654700     -0.49184900
H           0.04373000      0.90102400     -1.17671900
H          -0.01118600      1.10213700      0.57303500
H           1.94112200     -0.32504400     -0.02934900
H           2.54692700      1.21972900      0.61480200
H           2.56661800      0.91981100     -1.13609200
H          -1.42774100      3.26389000      0.30174800
H          -1.37431300      3.06571400     -1.46271300
H          -0.79776900      4.57808000     -0.71975400
H           1.16707500      3.15832800     -1.38764600
H           1.11065900      3.34075500      0.36424700
