14
b3lypvdz=-158.335244314427 
C           0.48385100      1.43288500     -0.12358900
C           1.75252500      0.73824700     -0.63289500
C           1.61968300     -0.78222000     -0.72329400
C           0.61587900      2.95325400     -0.03425500
H          -0.36021600      1.16658800     -0.78658000
H           0.22039400      1.02682600      0.87152800
H           2.59766600      0.99863400      0.03145400
H           2.01796800      1.15030600     -1.62487100
H           0.80791400     -1.07568600     -1.41105400
H           1.38453800     -1.22390300      0.26098400
H           2.54638200     -1.25359400     -1.08966500
H          -0.30933100      3.42356600      0.33746900
H           0.84547900      3.39571300     -1.01960700
H           1.42956900      3.24808500      0.65047600
