21
b3lypvdz=-274.961603694216 
C           0.58394100      1.46193900      0.03527600
C          -0.39351200      0.72171400     -0.93280900
C          -0.11790500     -0.78521600     -0.99597800
C           0.53459800      2.98780600     -0.12903800
C          -1.84448600      1.05973900     -0.66581100
C           0.39921000      1.07268000      1.50874700
C          -2.85137500      0.20446800     -0.45870700
H           1.59796000      1.14126400     -0.27045900
H          -0.16603000      1.13295600     -1.93791300
H           0.94286000     -0.97160900     -1.23082900
H          -0.72252600     -1.27096100     -1.77758700
H          -0.34397600     -1.28917400     -0.04224300
H          -0.41805000      3.41113700      0.23238700
H           0.66096000      3.28803000     -1.18306200
H           1.33821600      3.46740700      0.45284600
H          -2.08223600      2.13131100     -0.66193700
H           1.12667300      1.60619300      2.14177700
H          -0.61091000      1.33723400      1.86683500
H           0.54402600     -0.00626200      1.67905700
H          -3.86767200      0.57225600     -0.28995500
H          -2.71286600     -0.88041300     -0.45239900
