15
b3lypvdz=-196.399066023904 
C          -0.37669200      0.75335400     -0.92655400
C          -0.06829700     -0.74399400     -1.01319400
C          -1.79890600      1.13862700     -0.57688800
C          -2.04014200      2.62677100     -0.46802000
C          -2.78480700      0.25223000     -0.38483300
H           0.29789700      1.22236200     -0.18422600
H          -0.11939800      1.23454200     -1.89115200
H           0.99051600     -0.90238600     -1.27679600
H          -0.68040200     -1.24262800     -1.78249100
H          -0.25461000     -1.25140600     -0.05173200
H          -1.77639100      3.13806800     -1.41294600
H          -3.09097500      2.85874200     -0.23463100
H          -1.40796700      3.07293700      0.32084800
H          -3.79917600      0.58201800     -0.14090700
H          -2.62564900     -0.82663600     -0.46197700
