16
b3lypvdz=-234.462882381394 
C          -2.82454800      0.27950400     -0.22972400
C          -4.04028800      0.61404000      0.22846600
C          -5.23985100     -0.25079800      0.28722200
C          -6.55333700      0.47477700      0.09244200
C          -5.13120400     -1.57415800      0.52830900
C          -6.21529000     -2.60952600      0.57298200
H          -2.00056900      0.99766500     -0.20797700
H          -2.61157200     -0.70857600     -0.64719900
H          -4.19137500      1.64413900      0.57855400
H          -6.61361100      0.92786500     -0.91323800
H          -7.42555400     -0.17952000      0.22471700
H          -6.64479900      1.30734300      0.81203300
H          -4.12322000     -1.96292900      0.71776400
H          -6.22418200     -3.13056900      1.54775400
H          -7.21994000     -2.19986100      0.39496200
H          -6.02896100     -3.39219700     -0.18536800
