21
b3lypvdz=-274.963604432173 
C           0.59240300      1.41707800     -0.08360800
C           1.81597000      0.60372600     -0.55136300
C           1.44887400     -0.87126800     -0.75829700
C           0.78049000      2.93647800     -0.09372000
C           3.02950100      0.73410300      0.40458100
C           4.33072300      0.35381800     -0.24562300
C           5.15598200     -0.62390400      0.13996400
H          -0.25457700      1.15813100     -0.74364600
H           0.29550300      1.08338700      0.92905400
H           2.12840700      1.02269400     -1.52877600
H           0.65485700     -0.99020600     -1.51400800
H           1.07753600     -1.31540700      0.18297100
H           2.32067700     -1.46074400     -1.08336000
H          -0.15461900      3.45616100      0.17196700
H           1.09001600      3.29472600     -1.09167500
H           1.54497400      3.27236400      0.62529300
H           3.10819200      1.78156000      0.74636800
H           2.85790900      0.11917200      1.30631000
H           4.60029500      0.95299300     -1.12709200
H           6.08534300     -0.83301900     -0.39624700
H           4.93654600     -1.24704400      1.01321100
