17
b3lypvdz=-197.620639331163 
C           0.47669000      1.39794000     -0.53946400
C           1.83033900      0.67965800     -0.51561600
C           1.69967800     -0.84579800     -0.54012800
C           0.56288300      2.92512800     -0.44618600
C          -0.80978200      3.60544800     -0.47131300
H          -0.06850800      1.11878100     -1.46253500
H          -0.14756200      1.02228100      0.29449000
H           2.39407600      0.98599000      0.38577400
H           2.44014600      1.01359400     -1.37609400
H           1.15715300     -1.18879100     -1.43857500
H           1.13768300     -1.21576900      0.33520100
H           2.68495100     -1.33896000     -0.53616200
H           1.18475200      3.31095200     -1.27604600
H           1.09883400      3.20356900      0.48107000
H          -1.45871800      3.22720700      0.33747300
H          -1.33441900      3.41456400     -1.42419300
H          -0.72659400      4.69810600     -0.34899500
