21
b3lypvdz=-274.963199735874 
C           4.37496000      0.17271300     -0.16569000
C           5.13327300     -0.86004300      0.21247200
C           6.36721500     -1.36868900     -0.49340800
C           7.62702400     -1.25134000      0.41853000
C           6.11240600     -2.81507500     -0.96703300
C           7.86010400      0.19300800      0.88768100
C           8.89997100     -1.77887500     -0.26040600
H           3.48745000      0.47047500      0.39934200
H           4.61272500      0.76045500     -1.05870400
H           4.84959200     -1.42199600      1.11500700
H           6.53951100     -0.73182200     -1.38317000
H           7.43030200     -1.87803700      1.31230200
H           6.94548700     -3.20848300     -1.56910100
H           5.20014200     -2.86737800     -1.58256100
H           5.97163000     -3.49065000     -0.10442000
H           8.72029700      0.24950500      1.57543400
H           8.07979700      0.85016400      0.02691100
H           6.98195800      0.61004700      1.40271600
H           9.12686000     -1.19805900     -1.17235900
H           9.76355100     -1.67756100      0.41779000
H           8.82694500     -2.83785900     -0.55063400
