19
b3lypvdz=-273.757448025433 
C          -0.40369100      0.74096300     -1.00237300
C          -0.07246700     -0.75104200     -0.98097400
C          -1.81567200      1.11926300     -0.63983300
C          -2.80967900      0.28643500     -0.27777100
C          -4.16468200      0.71950000      0.04288300
C          -5.16524000     -0.10417400      0.40588500
C          -6.56922600      0.32001600      0.71982500
H           0.28891200      1.28431500     -0.33048700
H          -0.18350200      1.15223500     -2.00752500
H           0.97201400     -0.92107800     -1.28735500
H          -0.71702900     -1.31930900     -1.67093900
H          -0.20089100     -1.18203600      0.02590100
H          -2.03893900      2.19425200     -0.68799500
H          -2.61977800     -0.79183200     -0.21838200
H          -4.36483000      1.79756100     -0.03004200
H          -4.95159400     -1.17933000      0.48226500
H          -7.29713300     -0.18620800      0.06081800
H          -6.85351700      0.04718500      1.75296300
H          -6.70165700      1.40778200      0.60203500
