18
b3lypvdz=-235.677161116817 
C          -0.32219200      0.67375300     -0.94383800
C          -0.09210500     -0.83894300     -1.00445000
C          -1.72583900      1.12799900     -0.59727300
C          -0.83469000      3.58334000     -0.83601800
C          -1.99389800      2.63479700     -0.49978900
C          -2.73201300      0.27010100     -0.37925300
H           0.38329500      1.11491900     -0.21488800
H          -0.04200900      1.11507500     -1.91942100
H           0.95490900     -1.05368500     -1.27463900
H          -0.73515100     -1.32077300     -1.75921100
H          -0.29471800     -1.31928400     -0.03254200
H           0.01860800      3.45598100     -0.15031100
H          -0.46302800      3.43838000     -1.86438600
H          -1.17252100      4.62995100     -0.75048500
H          -2.84463700      2.87696800     -1.16101400
H          -2.33927200      2.85997100      0.52597800
H          -3.73557900      0.63390400     -0.13411200
H          -2.60496100     -0.81375200     -0.42654800
