21
b3lypvdz=-274.96421245319 
C           0.58635800      1.36423400     -0.01829200
C           1.96327000      0.85737200     -0.48450500
C          -0.50327900      0.74856500     -0.94933000
C           0.56929300      2.90123300     -0.10805100
C          -1.93078500      1.12509800     -0.64986700
C           0.36123300      0.92680200      1.43997400
C          -2.91787500      0.26749200     -0.37397800
H           2.03903300     -0.23976500     -0.38424700
H           2.76981600      1.30653500      0.11921900
H           2.15062100      1.11707600     -1.54112600
H          -0.41478800     -0.35297700     -0.92857200
H          -0.26633300      1.06285200     -1.98561400
H          -0.38875100      3.32772600      0.23258300
H           0.74867000      3.24527500     -1.14196800
H           1.35946600      3.33586300      0.52693500
H          -2.17168400      2.19685400     -0.68014700
H           1.11795100      1.37870700      2.10318700
H          -0.63305700      1.23046500      1.80684900
H           0.43801200     -0.17009900      1.54328900
H          -3.93800800      0.61633600     -0.18584100
H          -2.74456200     -0.81474400     -0.33129600
