12
b3lypvdz=-157.112608390984 
C          -6.14105600     -2.63237100      0.43777400
C          -5.25045300     -0.24629400      0.64957600
C          -6.52382000      0.52900600      0.45842100
C          -5.08912300     -1.57836400      0.63672400
H          -6.27447600     -3.23901100      1.35270500
H          -7.12200200     -2.21515200      0.16578600
H          -5.84136500     -3.33805200     -0.35710400
H          -4.35312400      0.36254900      0.81586200
H          -6.47399800      1.16128600     -0.44720100
H          -7.40970600     -0.11704300      0.37171100
H          -6.69331800      1.22090900      1.30292600
H          -4.07546000     -1.96216300      0.80862000
