18
b3lypvdz=-235.68424104512 
C          -0.36184800      0.82104500     -0.76506400
C           1.53555200     -0.85247500     -0.96754700
C           0.02661500     -0.65685400     -0.81091000
C          -1.82587000      1.16211500     -0.58426500
C          -2.11789700      2.63931400     -0.49001500
C          -2.80253800      0.24654600     -0.51682400
H           0.20920100      1.32111900      0.04161000
H          -0.00749000      1.31735100     -1.69126700
H           2.08938300     -0.40055000     -0.12723800
H           1.80463000     -1.91995200     -1.00791700
H           1.90891900     -0.37887000     -1.89168500
H          -0.50043700     -1.15569100     -1.64372700
H          -0.31841600     -1.15762500      0.11102200
H          -1.77397800      3.16885800     -1.39719400
H          -3.19114700      2.84119100     -0.35818800
H          -1.57258700      3.09951400      0.35298500
H          -3.84591200      0.54953100     -0.39174100
H          -2.60368000     -0.82506700     -0.58273500
