17
b3lypvdz=-197.61996724678 
C           0.66780300      1.23571100      0.00159800
C           1.96180100      0.49748200     -0.38958900
C          -0.47275200      0.86618100     -0.95519400
C           3.22165700      0.92712200      0.36395700
C           0.26192300      0.97942000      1.45897500
H           0.85865800      2.32220800     -0.11434500
H           1.80177500     -0.59090800     -0.25660900
H           2.12822800      0.65095800     -1.47238300
H          -0.71040100     -0.21172700     -0.89048000
H          -1.39356300      1.42377800     -0.71735000
H          -0.20794000      1.08511400     -2.00367200
H           3.40073200      2.01196600      0.25886300
H           4.11043700      0.40532200     -0.02624300
H           3.16175100      0.70485000      1.44289700
H           1.01888200      1.33569300      2.17523400
H          -0.68599100      1.48847800      1.70197400
H           0.11360000     -0.10105000      1.64106700
