15
b3lypvdz=-196.399663155958 
C           3.19267300      0.79594500      0.43654100
C           4.40859200      0.24027800     -0.25151700
C           5.14349200     -0.78781800      0.18705800
C           6.33558500     -1.38068600     -0.51612000
C           6.10836300     -2.85010000     -0.91634800
H           2.30456300      0.73558900     -0.21853000
H           3.32476300      1.86368400      0.69113200
H           2.96715600      0.25051300      1.36667900
H           4.69544900      0.72723800     -1.19421600
H           4.85489800     -1.27510700      1.13016900
H           7.21806700     -1.32288000      0.15011400
H           6.58101600     -0.77997800     -1.40944000
H           7.00202100     -3.28203000     -1.39741600
H           5.26464300     -2.94003300     -1.62118000
H           5.86942200     -3.47061500     -0.03512600
