20
b3lypvdz=-236.903217019832 
C           0.45944800      1.25005300     -0.45974700
C           1.87717000      0.66904000     -0.49769700
C           1.90097500     -0.84696300     -0.69462800
C           0.42443600      2.77980200     -0.29596500
C          -0.84978800      3.45751300     -0.82335200
C          -2.14358300      3.01705100     -0.13138000
H          -0.07877900      0.96163900     -1.38390000
H          -0.09624600      0.76840200      0.36557400
H           2.40524100      0.92672000      0.43998500
H           2.45237700      1.16140300     -1.30364800
H           1.40855300     -1.13714200     -1.63913400
H           1.36753600     -1.36785300      0.11880900
H           2.93048900     -1.23893200     -0.72071100
H           1.29585600      3.21997000     -0.81393700
H           0.55175400      3.03501500      0.77333400
H          -0.93389700      3.26191000     -1.90946500
H          -0.74043800      4.55192600     -0.71403000
H          -2.33841300      1.94124300     -0.27765700
H          -3.01294500      3.56740700     -0.52603700
H          -2.09974900      3.20269700      0.95678500
