15
b3lypvdz=-196.394876754514 
C           0.67162100      1.36794700      0.05914500
C           1.92453200      0.72759700     -0.55225700
C           3.16018300      0.81137500      0.36223800
C           4.39421500      0.21688200     -0.26371800
C           5.08936100     -0.81171400      0.23173600
H          -0.19479000      1.26494900     -0.61537600
H           0.82387000      2.44445500      0.25187900
H           0.40799900      0.89009500      1.01826500
H           1.72131900     -0.33398100     -0.78096800
H           2.15096500      1.21354300     -1.51950600
H           3.35447200      1.87554900      0.60397000
H           2.94694200      0.30433900      1.31997200
H           4.72026700      0.66956600     -1.21029700
H           5.97381300     -1.20132000     -0.28074000
H           4.80243100     -1.29468400      1.17205700
