15
b3lypvdz=-196.415729648194 
C           0.60835600      1.38935900     -0.02143200
C           1.92513400      0.72486200     -0.46513900
C          -0.43862200      0.74640000     -0.94120300
C           1.53637200     -0.73521100     -0.82944400
C          -0.01287900     -0.73632700     -0.99947700
H           0.63394100      2.48894100     -0.10127300
H           0.38825100      1.13437500      1.03199800
H           2.70972700      0.77642900      0.30706200
H           2.31661700      1.24521200     -1.35629300
H          -1.47102200      0.88055000     -0.57876700
H          -0.37847000      1.20208100     -1.94602900
H           1.83863300     -1.43578700     -0.03429200
H           2.04934500     -1.06567700     -1.74654600
H          -0.33792900     -1.22682400     -1.93067600
H          -0.48365400     -1.29168500     -0.17079100
