12
b3lypvdz=-194.239749469233 
O          -7.61323900     -0.27905700     -1.34985000
C          -7.55214000     -1.93704800      0.44513000
C          -6.56299600      0.38995600      0.74418600
C          -7.64025400     -0.45730100      0.06736600
H          -6.76039600     -0.62070700     -1.66202500
H          -6.56417500     -2.34888000      0.16384200
H          -8.32118900     -2.51821000     -0.08593000
H          -7.68249600     -2.09029800      1.52976300
H          -5.55567000      0.02732100      0.46494700
H          -6.64166900      0.35223800      1.84396900
H          -6.64634100      1.43967800      0.42137600
H          -8.63243400     -0.07309300      0.36392500
