21
b3lypvdz=-274.9644160702 
C           0.63705800      1.30989700     -0.10686200
C           1.95108000      0.67983300     -0.60970000
C          -0.57475600      0.75658900     -0.86939400
C           0.67847900      2.84205100     -0.18738500
C           3.13645900      0.81791900      0.36511300
C           4.42641500      0.29580100     -0.20413500
C           5.12258400     -0.73641400      0.27995700
H           0.51541400      1.02472800      0.95742800
H           1.79478300     -0.39517300     -0.80949300
H           2.21598900      1.13636800     -1.58310000
H          -0.65638300     -0.33739600     -0.75084500
H          -1.51316600      1.20551900     -0.50274200
H          -0.50267900      0.97436100     -1.95072400
H          -0.26250300      3.28842200      0.17558400
H           0.82539800      3.17095000     -1.23246800
H           1.49418400      3.27275000      0.41430400
H           3.26941000      1.88270900      0.63547200
H           2.90225100      0.28220200      1.30222300
H           4.79511600      0.81159000     -1.10185500
H           6.05193300     -1.07121700     -0.18880700
H           4.78923400     -1.27908900      1.17132900
