20
b3lypvdz=-236.905135862364 
C           0.59173500      1.38178300     -0.42154000
C           1.93102800      0.64197000     -0.60008200
C           1.68900000     -0.86815700     -0.73607200
C           0.65068100      2.91433600     -0.45284900
C           2.92614400      0.92356100      0.53353600
C          -0.74551200      3.54638300     -0.45365800
H          -0.09470300      1.04874800     -1.22217200
H           0.12128400      1.05263400      0.52619200
H           2.38457100      0.99711400     -1.54622800
H           0.98849500     -1.09283800     -1.55725400
H           1.25021000     -1.28126400      0.18992900
H           2.62695900     -1.41263400     -0.93340000
H           1.20662000      3.24378400     -1.35118000
H           1.22547600      3.29362200      0.41039300
H           3.17118100      1.99386300      0.62044200
H           3.87106500      0.37925800      0.37066800
H           2.51600400      0.59328300      1.50539200
H          -1.32640800      3.23323200      0.43111300
H          -1.32219100      3.23718000     -1.34253700
H          -0.69903800      4.64764300     -0.45019300
