8
b3lypvdz=-79.764282258945 
C           0.62006700      1.39672600      0.01259300
C           1.91703300      0.74017400     -0.47289200
H          -0.21949400      1.17466800     -0.66735100
H           0.72315700      2.49401800      0.06924200
H           0.34121800      1.03384600      1.01640600
H           1.81394300     -0.35711800     -0.52954200
H           2.75659500      0.96223200      0.20705000
H           2.19588100      1.10305400     -1.47670600
