14
b3lypvdz=-158.335318637269 
C           1.85853900      0.73256800     -0.26555600
C           1.41598800     -0.69405200     -0.60731500
C          -0.00334300     -0.76378700     -1.17297700
C           3.28098400      0.80919500      0.29108900
H           1.14784200      1.17176900      0.46012900
H           1.78098300      1.36058300     -1.17316900
H           1.49270300     -1.32456200      0.29857900
H           2.12675700     -1.13224500     -1.33365100
H          -0.10063500     -0.14049800     -2.07840100
H          -0.28954900     -1.79234600     -1.44772800
H          -0.74472000     -0.39407700     -0.44326100
H           3.58363100      1.84764300      0.50377300
H           4.00984000      0.38912200     -0.42372100
H           3.37868000      0.23488700      1.22830800
