19
b3lypvdz=-273.766355186548 
C           0.59223500      1.47587800      0.06770200
C          -0.38936600      0.65374000     -0.77822000
C           0.55482600      2.98308600     -0.29369700
C          -1.82093700      1.12660800     -0.58453500
C          -0.81994300      3.43022400     -0.84617500
C          -1.96805400      2.60135600     -0.24797300
C          -2.87240200      0.30716300     -0.70496400
H           1.61635700      1.08528100     -0.05612200
H           0.33754700      1.33962000      1.13434100
H          -0.30468200     -0.41979300     -0.54104800
H          -0.11595400      0.75822500     -1.84731500
H           1.33708500      3.21324400     -1.03670700
H           0.80612000      3.57353100      0.60470600
H          -0.83877100      3.31784900     -1.94579300
H          -0.97605000      4.50302000     -0.64332900
H          -2.94808400      2.97326600     -0.58722900
H          -1.94589100      2.72371800      0.85333800
H          -3.89716400      0.67554800     -0.59445800
H          -2.74487100     -0.75776500     -0.92372200
