18
b3lypvdz=-235.680114376562 
C           4.35220800      0.18154200     -0.15365800
C           5.08390200     -0.87719800      0.20418400
C           6.33759100     -1.36760200     -0.47648900
C           7.56141000     -1.25997400      0.46421500
C           6.14712100     -2.81467200     -0.97080500
C           7.91843000      0.17342400      0.87074000
H           3.45348500      0.47149800      0.39755800
H           4.62299000      0.79790000     -1.01766000
H           4.77056300     -1.46741700      1.07876700
H           6.52783000     -0.71934100     -1.35361700
H           8.42610900     -1.73070000     -0.03888200
H           7.36792900     -1.87181200      1.36621700
H           7.06694200     -3.19946400     -1.44304800
H           5.32976200     -2.88270600     -1.70660300
H           5.89699500     -3.48780800     -0.13148300
H           8.79872200      0.19731600      1.53377300
H           8.15106800      0.79156200     -0.01357000
H           7.08384200      0.66375100      1.39866000
