16
b3lypvdz=-234.473305801729 
C          -0.43224100      0.70214600     -0.97731700
C          -1.83058900      1.12572000     -0.63923500
C          -2.83096800      0.29791100     -0.28514700
C          -4.18346000      0.72984800      0.04223900
C          -5.18506300     -0.09666000      0.39586000
C          -6.58315200      0.32917500      0.73252300
H           0.30632100      1.18931500     -0.31605900
H          -0.30452700     -0.38882100     -0.88752000
H          -0.16023000      0.99773900     -2.00756800
H          -2.04020600      2.20318200     -0.68999800
H          -2.63546200     -0.78212800     -0.23502500
H          -4.37842500      1.80997800     -0.00864800
H          -4.97680000     -1.17434600      0.44760700
H          -7.32079400     -0.15052500      0.06461300
H          -6.85984100      0.02705500      1.75947500
H          -6.70666200      1.42121300      0.64990000
