15
b3lypvdz=-233.523237149202 
O          -7.56309800     -0.26986500     -1.34988900
C          -6.60503400      0.45840500      0.76977800
C          -7.61759400     -0.44889200      0.06763700
C          -6.14491500     -2.58103600      0.15465700
C          -7.50609600     -1.93568100      0.45188400
H          -6.65199500     -0.44141900     -1.62963700
H          -5.57236800      0.22775100      0.45030000
H          -6.65438000      0.35327000      1.86738700
H          -6.79955400      1.51188300      0.51047300
H          -8.63113900     -0.10991200      0.34438500
H          -5.33143900     -2.12229900      0.74059400
H          -5.88490300     -2.49769900     -0.91587000
H          -6.16173900     -3.65527000      0.40232400
H          -8.28963500     -2.47958300     -0.10280100
H          -7.73921100     -2.04965200      1.52708000
