17
b3lypvdz=-197.619143632245 
C           0.65079800      1.33717700     -0.37918100
C           2.02471700      0.66402800     -0.50949200
C           0.65457100      2.86521200     -0.51295000
C           2.98803300      0.92833900      0.65141500
C          -0.75629100      3.46097500     -0.49187100
H          -0.01496000      0.92402100     -1.15954700
H           0.18899000      1.05327700      0.58676000
H           1.87240500     -0.42642600     -0.59827000
H           2.49581000      0.98138700     -1.45849100
H           1.15732700      3.14345200     -1.45899000
H           1.26098800      3.31810400      0.29150500
H           3.25380600      1.99449800      0.74009000
H           3.92590700      0.36490300      0.51925800
H           2.54450300      0.61515400      1.61316000
H          -1.27099200      3.24269400      0.46008700
H          -1.37770300      3.03774500     -1.29928200
H          -0.74100700      4.55585800     -0.61990300
