20
b3lypvdz=-236.902644672255 
C           0.57162200      1.40245000      0.03664300
C           1.84080800      0.69692900     -0.52397500
C           1.59266900     -0.79154200     -0.81180400
C           0.65981900      2.92967500     -0.09036700
C           3.09001800      0.88120400      0.35158500
C           0.22082900      1.01027200      1.48213200
H          -0.26448700      1.07067500     -0.60823400
H           2.05458200      1.18224200     -1.49570800
H           0.77184000     -0.93284900     -1.53502100
H           1.32793300     -1.34706700      0.10431400
H           2.49319000     -1.26768800     -1.23516300
H          -0.29028800      3.40554800      0.20599000
H           0.88470300      3.23644300     -1.12590600
H           1.44507200      3.35253800      0.55829400
H           3.28341100      1.94111800      0.58360600
H           3.98286500      0.48738900     -0.16241000
H           3.00070700      0.34067800      1.30871000
H           0.97168500      1.38813400      2.19655000
H          -0.74947200      1.44448200      1.77533700
H           0.14909400     -0.08093000      1.61842700
