21
b3lypvdz=-274.962732664622 
C           0.67288700      1.37672700      0.09613900
C           1.97512600      0.76456000     -0.45040000
C           3.23617400      0.89826400      0.43908200
C           0.26047400      0.89165100      1.49134100
C           3.59317800      2.36208600      0.75761600
C           4.39972700      0.20654600     -0.23015500
C           5.01051900     -0.89882900      0.20394800
H          -0.13240200      1.13203700     -0.62032500
H           0.74486500      2.47917900      0.09568500
H           1.81477600     -0.31171500     -0.64274300
H           2.19167100      1.22069600     -1.43541900
H           3.03994800      0.37197000      1.39116100
H           0.99160200      1.18505000      2.26281700
H          -0.71096000      1.32007400      1.78737500
H           0.16579600     -0.20793200      1.52793800
H           3.81812600      2.92434700     -0.16623400
H           4.48259600      2.41647300      1.40594100
H           2.76939300      2.88076800      1.27325000
H           4.74531100      0.67322500     -1.16433900
H           5.84278300     -1.34822400     -0.34489200
H           4.69791100     -1.39825200      1.12741400
