18
b3lypvdz=-235.6778168943 
C           0.56619800      1.44989100      0.05175600
C          -0.38223100      0.71528900     -0.93122200
C          -0.11637000     -0.79239800     -0.99708000
C          -1.82525200      1.07848100     -0.65746900
C           0.41804500      1.06136500      1.52613200
C          -2.85269100      0.24613900     -0.46176500
H           1.60677800      1.26960300     -0.27415600
H           0.39962600      2.53770300     -0.05376800
H          -0.14680300      1.13627300     -1.93000500
H           0.94216400     -0.98658100     -1.23625100
H          -0.72776400     -1.27506900     -1.77543100
H          -0.34068100     -1.29400600     -0.04158000
H          -2.02254500      2.15945600     -0.62201800
H           1.09072000      1.66243300      2.15832700
H          -0.61253800      1.22544400      1.88334100
H           0.66597300      0.00124400      1.70145800
H          -3.85837500      0.63352400     -0.27666400
H          -2.73945600     -0.84159200     -0.48080600
