16
b3lypvdz=-234.466839734135 
C          -0.41555000      0.75363600     -0.99069400
C          -0.05039200     -0.73057400     -0.98460400
C          -1.83341600      1.09744500     -0.62011300
C          -2.81737900      0.23924900     -0.29240700
C          -4.17186500      0.65575000      0.05429300
C          -5.17312700     -0.17847900      0.38059600
H           0.26343000      1.30573200     -0.31230700
H          -0.20631100      1.18257400     -1.99083400
H           0.99904300     -0.87215700     -1.28852300
H          -0.67856200     -1.30662100     -1.68297300
H          -0.17209400     -1.17420200      0.01763600
H          -2.07074000      2.17051700     -0.62531700
H          -2.62035500     -0.83914800     -0.27780400
H          -4.36483900      1.73654400      0.04232500
H          -6.16641500      0.19912000      0.63367000
H          -5.02722700     -1.26348800      0.40835600
