17
b3lypvdz=-197.619867184159 
C           0.62112000      1.30560900     -0.10203900
C           1.96518900      0.67417800     -0.51451400
C          -0.53152900      0.76311300     -0.95318800
C           0.66457000      2.83802500     -0.14875500
C           3.11894000      0.93174300      0.45616800
H           0.42795800      1.00362900      0.94803900
H           1.82505000     -0.41610200     -0.62732300
H           2.23561200      1.04874200     -1.52138200
H          -0.61505500     -0.33311900     -0.86269200
H          -1.49557200      1.20153400     -0.64561400
H          -0.38830200      1.00108000     -2.02349000
H          -0.30337100      3.27671100      0.14623300
H           0.89397600      3.18990600     -1.17179400
H           1.42822100      3.25874200      0.52311200
H           3.34302900      2.00609800      0.55967800
H           4.04311100      0.43423800      0.12034100
H           2.88305200      0.54617300      1.46372000
