17
b3lypvdz=-197.620728473362 
C           1.83447500      0.71511800     -0.21329800
C           1.41658000     -0.70373800     -0.61632600
C           0.01228500     -0.76227200     -1.22436000
C           3.24076800      0.80716600      0.38998400
C           3.63388400      2.23587400      0.77531200
H           1.10290200      1.11755400      0.51437000
H           1.77139300      1.37740000     -1.09820000
H           1.46547500     -1.36270200      0.27087000
H           2.14963200     -1.11423200     -1.33583100
H          -0.05775000     -0.12993100     -2.12603800
H          -0.26843900     -1.78746100     -1.51714200
H          -0.74600700     -0.39846700     -0.50913500
H           3.97372400      0.39977500     -0.33162000
H           3.30198200      0.15466500      1.28100800
H           3.63469100      2.90052300     -0.10597400
H           4.63900300      2.27318100      1.22706000
H           2.92710100      2.66214500      1.50832100
