19
b3lypvdz=-273.752249167399 
C          -0.53956300      0.59884200     -1.22056300
C          -1.84635400      1.17396000     -0.73448700
C          -0.76795500      3.50614000     -0.49349100
C          -2.01589400      2.67987200     -0.83957000
C          -2.81342200      0.34594200     -0.27181800
C          -4.14500400      0.70308300      0.19877700
C          -5.06145000     -0.19412400      0.60544100
H           0.31764500      0.99329100     -0.64851500
H          -0.52699800     -0.49838300     -1.13694800
H          -0.35510900      0.86724400     -2.27782500
H          -0.39233400      3.26206600      0.51478900
H           0.05477200      3.33801800     -1.20664900
H          -1.00494300      4.58228300     -0.51377800
H          -2.32484400      2.92833400     -1.87502200
H          -2.84283000      3.00964100     -0.19350500
H          -2.59215800     -0.72893300     -0.25699900
H          -4.41782000      1.76339900      0.21378500
H          -6.04838000      0.11957000      0.95236700
H          -4.84765900     -1.26824700      0.60201100
