18
b3lypvdz=-235.68372597429 
C           0.58852600      1.01009800      0.09464300
C           2.01872200      0.69077000     -0.34738900
C          -0.44486800      0.83220100     -1.03623800
C          -1.84303500      1.26404800     -0.64556400
C          -2.10735600      2.74894200     -0.66570900
C          -2.78524300      0.37919900     -0.29061800
H           0.54883100      2.04683300      0.47446500
H           0.29930400      0.36301100      0.94143900
H           2.11496900     -0.35911900     -0.67534000
H           2.73908900      0.85586900      0.47086100
H           2.32520600      1.32803200     -1.19439800
H          -0.45566300     -0.22461400     -1.35431000
H          -0.11178800      1.42086400     -1.91194400
H          -1.95294800      3.15385400     -1.68300700
H          -3.13265400      2.99114100     -0.34763500
H          -1.41133400      3.29658300     -0.00712900
H          -3.78484100      0.70192900      0.01469300
H          -2.58651600     -0.69714000     -0.29052100
