20
b3lypvdz=-236.899383020092 
C           0.57784200      1.38442000      0.03609600
C           1.93338700      0.79341700     -0.43012300
C           0.50229000      2.91522500     -0.04798300
C           3.15503000      0.88930700      0.50439500
C           0.15450800      0.89931500      1.43158700
C           3.75925000      2.28434700      0.71393100
H          -0.16918600      0.99285700     -0.68137500
H           1.76746700     -0.28011200     -0.63646900
H           2.19610700      1.24636400     -1.40541900
H          -0.52574500      3.26485300      0.14882200
H           0.79721800      3.28082500     -1.04655600
H           1.15657600      3.40556900      0.68936800
H           3.93779200      0.23494400      0.07900600
H           2.90630900      0.44281300      1.48391100
H           0.82790800      1.28389400      2.21628100
H          -0.86083500      1.25479500      1.67522200
H           0.15042700     -0.20172600      1.50145000
H           3.97728000      2.77725500     -0.24965700
H           4.70575300      2.22122600      1.27644700
H           3.09072100      2.95160900      1.27916600
