6
b3lypvdz=-115.656578200233 
O          -7.59398800     -0.27693000     -1.37875100
C          -7.63710300     -0.45220100      0.02727800
H          -6.69761900     -0.49309400     -1.67128000
H          -6.95621000      0.23355600      0.56989800
H          -7.40783000     -1.49042300      0.34431300
H          -8.66605100     -0.22260800      0.34744200
