13
b3lypvdz=-195.175230567702 
C          -4.19437200      0.60456100      0.08079100
C          -5.21573800     -0.14860900      0.52422700
C          -6.61416900      0.39876200      0.67801500
C          -5.05055200     -1.57811800      0.87078500
C          -3.95848100     -2.14271100      1.40465800
H          -3.20028900      0.18009900     -0.07669900
H          -4.33188600      1.66286000     -0.15595300
H          -7.32693100     -0.17151900      0.05665400
H          -6.96519800      0.30353000      1.72088400
H          -6.67267100      1.45657800      0.38132100
H          -5.93077500     -2.20884000      0.68875300
H          -3.92006400     -3.21405600      1.61578800
H          -3.07387200     -1.55233700      1.65887500
