16
b3lypvdz=-271.57717551481 
O          -7.60784500     -0.26800400     -1.36914600
C          -4.94638200     -1.69700700      0.67614400
C          -7.72751000     -0.45680800      0.03581400
C          -6.11302400     -2.48343300      0.13938700
C          -7.50641500     -1.90734300      0.47553900
C          -4.04781000     -2.13459500      1.56301400
H          -6.67380200     -0.36045700     -1.60452200
H          -4.83061000     -0.67567400      0.28659200
H          -7.05312600      0.22233800      0.59639100
H          -8.75573000     -0.14990700      0.28699400
H          -6.02547500     -2.54750500     -0.96307000
H          -6.05408800     -3.52039200      0.51179700
H          -8.26903500     -2.53341900     -0.01969600
H          -7.68352300     -1.97712000      1.56410100
H          -4.10286000     -3.14432800      1.98412400
H          -3.22136600     -1.50334500      1.89973700
