13
b3lypvdz=-232.293260319124 
O          -7.49650200     -0.48630400     -1.35129800
C          -5.24932400     -0.31634000      0.80043800
C          -6.59021300      0.37748500      0.76450400
C          -4.97824400     -1.57050300      0.41969300
C          -7.70726000     -0.38143300      0.04982300
H          -6.60817200     -0.85261400     -1.47638000
H          -4.42431000      0.29492800      1.18830300
H          -6.90140600      0.60232500      1.80362600
H          -6.46754900      1.36075200      0.27375100
H          -5.74428200     -2.25026500      0.03320100
H          -3.96535100     -1.97495200      0.49656400
H          -7.84557100     -1.37925700      0.51828100
H          -8.65851600      0.16097900      0.17099500
