12
b3lypvdz=-157.109018926731 
C          -6.15589300     -2.50855600      0.33517100
C          -7.57472300     -1.94139800      0.29951200
C          -5.17771700     -0.18645400      0.67774200
C          -5.04505300     -1.50660000      0.52068500
H          -5.95447700     -3.07595100     -0.59449800
H          -6.07476700     -3.26564500      1.14041900
H          -7.70244000     -1.22208900     -0.52650800
H          -8.31114500     -2.74867200      0.15895300
H          -7.82707500     -1.41726000      1.23688400
H          -4.30445600      0.45759800      0.81022500
H          -6.15477200      0.30468500      0.68314000
H          -4.03398200     -1.93575800      0.52387400
