21
b3lypvdz=-274.970352974522 
C           3.09450300      0.70794200      0.44485800
C           4.36802900      0.23790500     -0.19875100
C           5.11493700     -0.79110600      0.21773800
C           6.35545900     -1.32632200     -0.45406300
C           7.59047300     -1.26669800      0.47437400
C           6.09971800     -2.76865200     -0.93684600
C           8.02772300      0.15192200      0.85365800
H           2.25191900      0.66061500     -0.26920000
H           3.16483800      1.76083500      0.77407300
H           2.83109700      0.09578300      1.32158700
H           4.68576700      0.78470200     -1.09790000
H           4.79804100     -1.34052300      1.11800500
H           6.56870400     -0.69603800     -1.33913800
H           8.42641000     -1.79005200     -0.02556000
H           7.37357900     -1.85215700      1.38873000
H           6.99690400     -3.19988400     -1.41261400
H           5.27345800     -2.80309300     -1.66519800
H           5.82281000     -3.42229800     -0.09041900
H           8.91369700      0.13739700      1.50968100
H           8.28900300      0.74113500     -0.04252400
H           7.22603000      0.69628800      1.38011000
