12
b3lypvdz=-157.108938992347 
C          -1.82995100      1.09727000     -0.62435400
C          -0.39739300      0.76146200     -0.95390500
C          -0.04856200     -0.72815400     -1.00155500
C          -2.82461500      0.23448000     -0.39627300
H          -2.05572400      2.17201800     -0.57333700
H           0.25483300      1.26938400     -0.21728000
H          -0.14828600      1.22919000     -1.92689700
H           1.01547900     -0.86674700     -1.25455000
H          -0.64364600     -1.26050800     -1.76168400
H          -0.22891100     -1.21663500     -0.02895700
H          -3.83157000      0.59334300     -0.16493500
H          -2.67905400     -0.84980400     -0.42757300
