15
b3lypvdz=-196.394402461367 
C           4.30410200      0.12287300     -0.19043200
C           5.08294600     -0.90126800      0.16955400
C           6.37806000     -1.30058900     -0.48380300
C           7.58673500     -1.24947500      0.47625600
C           7.97473900      0.17374700      0.89255400
H           3.37443400      0.35302900      0.33735500
H           4.56416300      0.76586000     -1.03865900
H           4.77837600     -1.52074800      1.02600300
H           6.27793800     -2.33497300     -0.86540600
H           6.56867300     -0.65699800     -1.36149200
H           8.44624600     -1.74494400     -0.01036700
H           7.35772800     -1.85666000      1.37237900
H           8.82987900      0.17607900      1.58850000
H           8.25924900      0.77857900      0.01354300
H           7.13453100      0.69208900      1.38521500
