12
b3lypvdz=-157.10934886093 
C           5.10790400     -0.89830900      0.15096800
C           3.51002400      2.28493900      0.85014200
C           4.43942900      0.19138300     -0.23647700
C           3.27130100      0.81107500      0.48199900
H           5.94715700     -1.29214900     -0.42873800
H           4.84001600     -1.43847900      1.06527200
H           3.75122900      2.88447100     -0.04472700
H           4.35301400      2.38844700      1.55334600
H           2.61782700      2.73040800      1.32030600
H           4.75172000      0.70129400     -1.15903500
H           2.37923200      0.74617500     -0.17031700
H           3.03634600      0.22514500      1.38766100
