19
b3lypvdz=-273.761134926936 
C           0.62557200      1.39540200     -0.02152100
C           1.93685500      0.72068000     -0.46189400
C          -0.42373100      0.77224500     -0.96764700
C           1.52899100     -0.73382100     -0.83187300
C          -0.02172300     -0.71555500     -0.99691100
C          -1.84938700      1.10356900     -0.61636000
C          -2.84461700      0.23838200     -0.39538600
H           0.66478000      2.49590200     -0.08637200
H           0.38366100      1.12728700      1.02399400
H           2.72013800      0.76086300      0.31218800
H           2.33394900      1.24018900     -1.35064300
H          -0.23088300      1.19983600     -1.97470000
H           1.82297900     -1.44048000     -0.03933700
H           2.03562400     -1.06850800     -1.75093300
H          -0.35791900     -1.21825200     -1.91731400
H          -0.49303900     -1.24650200     -0.15246200
H          -2.06956900      2.17750800     -0.54109600
H          -3.84725800      0.59317700     -0.14025700
H          -2.70442400     -0.84451900     -0.46447500
