17
b3lypvdz=-309.678717492155 
O          -7.50028400     -0.35993400     -1.38467100
C          -5.22137500     -0.24892000      0.73517000
C          -6.58484100      0.40153000      0.75270000
C          -5.03171700     -1.54990700      0.46931600
C          -7.63392000     -0.46152300      0.03530500
C          -6.15343500     -2.51698300      0.18296200
C          -7.53916200     -1.92517300      0.49304100
H          -6.55854500     -0.46433100     -1.59084000
H          -4.35289400      0.38590100      0.94153800
H          -6.89857000      0.58958900      1.79783700
H          -6.54885500      1.39252800      0.26859900
H          -4.01134800     -1.95057800      0.45628100
H          -8.64123600     -0.07007700      0.25126500
H          -6.10380000     -2.81848200     -0.88211900
H          -5.99803100     -3.45211200      0.74793700
H          -8.32471700     -2.51463100     -0.00477300
H          -7.73317200     -1.96959400      1.57995200
