15
b3lypvdz=-196.394452285889 
C           0.56975300      1.38652200      0.04360800
C          -0.44119600      0.73844300     -0.92427800
C          -1.87196700      1.13464900     -0.67490700
C           0.37909400      0.99678000      1.51170100
C          -2.88274800      0.29634500     -0.42860000
H           1.58785500      1.10895200     -0.28294500
H           0.50688900      2.48665400     -0.05917100
H          -0.35354100     -0.36284700     -0.88306000
H          -0.16397400      1.04024400     -1.95258000
H          -2.07981800      2.21445100     -0.70440900
H           1.10357200      1.51510500      2.16012600
H          -0.63278300      1.25351700      1.86784100
H           0.51380900     -0.08918700      1.66078100
H          -3.90043500      0.66257800     -0.26578100
H          -2.72971000     -0.78830500     -0.38482500
