21
b3lypvdz=-274.968874592539 
C           0.63727400      1.00228900      0.01134200
C           2.03702900      0.69841200     -0.53097600
C          -0.46505600      0.79068600     -1.04537800
C           3.14189000      0.82010800      0.51753100
C          -1.83571500      1.24405700     -0.58788900
C          -2.11460300      2.72085800     -0.69623600
C          -2.74134200      0.38328700     -0.10112000
H           0.60864000      2.04198600      0.38665000
H           0.42237000      0.36110400      0.88471600
H           2.04544700     -0.32116300     -0.95891300
H           2.25055900      1.37765000     -1.37655600
H          -0.49798100     -0.27719900     -1.31993700
H          -0.18591400      1.34261900     -1.96153700
H           3.18618900      1.83799100      0.94233700
H           4.13050700      0.59540800      0.08432900
H           2.97923000      0.12442900      1.35793200
H          -2.00279000      3.05686700     -1.74307200
H          -3.12731600      2.97826100     -0.35236800
H          -1.39648400      3.31750800     -0.10751400
H          -3.71821700      0.72277700      0.25347700
H          -2.52891600     -0.68783600     -0.03341700
