21
b3lypvdz=-274.962948630376 
C           0.59970500      1.36190200      0.03930000
C           1.86588300      0.60899000     -0.42554200
C           0.72716200      2.88247800     -0.12827000
C           3.14529900      0.83353300      0.40650600
C           0.17935200      1.00208400      1.47241100
C           4.37047900      0.30524100     -0.28773900
C           5.14013600     -0.70203000      0.13267900
H          -0.20955900      1.02322400     -0.63533300
H           1.65947800     -0.47596300     -0.45429200
H           2.07325900      0.90647700     -1.47101000
H          -0.22403200      3.38750700      0.11040400
H           1.00594200      3.15480000     -1.16073000
H           1.49081900      3.30959800      0.54327100
H           3.27954700      1.91633500      0.58774000
H           3.04663000      0.35711000      1.39692800
H           0.91768300      1.35496200      2.21277500
H          -0.78493100      1.47235000      1.72793000
H           0.06778000     -0.08739500      1.60465400
H           4.61909300      0.79891200     -1.23832200
H           6.01099200     -1.03633000     -0.43767600
H           4.93068400     -1.22668700      1.07121400
