16
b3lypvdz=-234.462913101909 
C          -4.17423800      0.62056200      0.15284900
C          -5.21345100     -0.15732900      0.50066000
C          -6.60729900      0.41303400      0.63819100
C          -5.04838300     -1.62401100      0.73844700
C          -6.17687500     -2.52356900      0.28666000
C          -3.95719000     -2.12582500      1.34200900
H          -3.17725100      0.20406000     -0.00470200
H          -4.30012800      1.69632400      0.00077200
H          -7.30152800     -0.03640400     -0.09231100
H          -7.02822300      0.20724100      1.63821300
H          -6.60784100      1.50131400      0.47552900
H          -7.10018200     -2.32557400      0.85717800
H          -6.42218800     -2.35816900     -0.77754100
H          -5.91704100     -3.58367300      0.42484400
H          -3.83362100     -3.20344800      1.48173000
H          -3.16625900     -1.47853300      1.72517100
