17
b3lypvdz=-197.619857204442 
C           0.63823800      1.34809700     -0.13173900
C           2.06416800      0.79967800     -0.28425500
C           0.60556900      2.85981200     -0.43368000
C           0.08702100      1.01098200      1.26179000
C          -0.79370500      3.47413000     -0.54416200
H          -0.00052400      0.84344300     -0.88306500
H           2.11066700     -0.27724800     -0.04744300
H           2.76025000      1.31841100      0.39730500
H           2.44345000      0.93504400     -1.31124400
H           1.14512200      3.03599700     -1.38288500
H           1.19025900      3.39044700      0.34201800
H           0.70910600      1.47049500      2.04980800
H          -0.94629900      1.36613100      1.40343400
H           0.08919500     -0.07908600      1.43139200
H          -1.35748000      3.40687700      0.40127400
H          -1.39113400      2.96573000     -1.32065700
H          -0.73770300      4.54146000     -0.81549100
