21
b3lypvdz=-274.969577797173 
C           1.92518300      0.68484800     -0.51006700
C           1.46729500     -0.75790500     -0.74625200
C           3.17591000      0.79655700      0.38851900
C           4.42936000      0.27752400     -0.26266700
C           5.17214600     -0.75039600      0.16507500
C           6.41110200     -1.27999700     -0.50478100
C           7.63202300     -1.34414800      0.42624400
H           1.10528800      1.26701500     -0.05309500
H           2.13838000      1.17376300     -1.47949400
H           0.59112800     -0.80109300     -1.41386000
H           1.18516700     -1.24448900      0.20421800
H           2.26952100     -1.36323000     -1.20033900
H           3.32374400      1.86130900      0.65111500
H           2.99751500      0.25989900      1.33815700
H           4.73347500      0.79514200     -1.18490100
H           4.86782300     -1.26960900      1.08596900
H           6.20537800     -2.30082900     -0.88204400
H           6.64380900     -0.66522700     -1.39184200
H           7.91927500     -0.33954100      0.77901500
H           8.50095800     -1.79083300     -0.08447800
H           7.42111800     -1.95925900      1.31810700
