23
b3lypvdz=-276.183141259084 
C           0.64733500      1.37370400     -0.14519300
C           2.04032000      0.75966000     -0.45427200
C           0.57194700      2.89579800     -0.39601400
C           3.15825700      0.85679700      0.60155100
C           0.13459000      0.98791500      1.25188400
C          -0.85666500      3.44236000     -0.52008600
C           3.69888200      2.26197900      0.89889400
H          -0.03884700      0.91047100     -0.88135900
H           1.88757600     -0.31556300     -0.66277400
H           2.41041700      1.19421100     -1.40226700
H           1.11599100      3.12280500     -1.33149500
H           1.10528000      3.44198400      0.40126200
H           3.99402300      0.22798300      0.24328400
H           2.82161800      0.38590500      1.54287800
H           0.73801400      1.45729600      2.04706400
H          -0.90894800      1.30788900      1.40307800
H           0.16906600     -0.10416700      1.40560800
H          -1.42178400      3.35934800      0.42376100
H          -1.42375200      2.89603100     -1.29369300
H          -0.84938100      4.50794200     -0.80418400
H           4.00792500      2.77794500     -0.02671100
H           4.58051700      2.21146300      1.56026300
H           2.95221800      2.89654400      1.40242300
