16
b3lypvdz=-234.458960539158 
C          -3.06868400      0.33727500     -0.43629200
C          -4.40604800      0.23962400     -0.41649200
C          -5.20847500     -0.50318100      0.58332900
C          -6.56065200      0.08862700      0.93926900
C          -4.77241200     -1.64414200      1.14555900
C          -7.59674500      0.00995400     -0.19390400
H          -2.55270600      0.90457900     -1.21523800
H          -2.44836500     -0.13725900      0.32999900
H          -4.97582500      0.78232700     -1.18048200
H          -6.95570500     -0.43463900      1.82499400
H          -6.42604300      1.14648700      1.23153900
H          -5.36368800     -2.15998100      1.90723900
H          -3.82575500     -2.10237600      0.84987500
H          -7.26218000      0.54595300     -1.09717300
H          -7.79187200     -1.03652800     -0.48010100
H          -8.55084400      0.46268100      0.12208100
