20
b3lypvdz=-236.900601826065 
C           0.66477000      1.40262800     -0.35069000
C           2.06339900      0.78732400     -0.54363800
C           0.55383000      2.92523800     -0.51288300
C           3.04468500      0.84457100      0.64240800
C          -0.89895300      3.41128600     -0.51286900
C           3.65337700      2.21435800      0.96955200
H          -0.01103200      0.93948600     -1.09389100
H           0.26069100      1.10390000      0.63639300
H           1.92389800     -0.27923100     -0.79544800
H           2.53904100      1.24299900     -1.43362500
H           1.04163500      3.22253700     -1.46057100
H           1.11251800      3.44201900      0.28525300
H           3.87062800      0.14574600      0.41699800
H           2.54655000      0.43583500      1.54207500
H          -1.40567400      3.15821200      0.43488900
H          -1.47794000      2.93976100     -1.32487300
H          -0.96497200      4.50404000     -0.64524600
H           4.11461300      2.66876000      0.07510500
H           4.44225200      2.12012500      1.73452900
H           2.90698400      2.92440500      1.35783300
