21
b3lypvdz=-274.965397263678 
C           1.88994200      0.69167600     -0.24329700
C           1.37340500     -0.72642200     -0.51097700
C           0.02956800     -0.73771200     -1.24462600
C           3.25099000      0.76784200      0.48524900
C           3.57296900      2.22306700      0.87879800
C           4.37058700      0.20563600     -0.35859400
C           5.20507500     -0.77918900     -0.01178500
H           1.14446900      1.23868100      0.36383400
H           1.96096400      1.24561000     -1.19948800
H           1.27094200     -1.26292800      0.45063900
H           2.12136700     -1.29289300     -1.09317100
H           0.10264200     -0.22752000     -2.22057400
H          -0.32386800     -1.76492700     -1.43173500
H          -0.75046900     -0.21743500     -0.66227800
H           3.17967800      0.16567700      1.40993500
H           3.72444000      2.84947300     -0.01761200
H           4.49119700      2.27983200      1.48446200
H           2.74878600      2.66774500      1.46198300
H           4.50190500      0.68898400     -1.33787800
H           6.00223600     -1.11461600     -0.68082100
H           5.12367500     -1.28798200      0.95433700
