15
b3lypvdz=-196.394391209409 
C           0.40022200      2.88288900      0.06943200
C          -2.07499000      1.24146100     -0.99619000
C          -0.69621700      3.38298600     -0.87204900
C          -2.06378200      2.70846500     -0.65994200
C          -2.49709600      0.25820300     -0.19562600
H           0.55064600      1.79524400     -0.03385400
H           1.36125900      3.38045100     -0.13958600
H           0.14164800      3.08249000      1.12465400
H          -1.70549400      0.98085100     -1.99800100
H          -0.37898600      3.22577600     -1.92070800
H          -0.81958200      4.47391000     -0.75034500
H          -2.80199700      3.21939400     -1.30716100
H          -2.40529000      2.85639300      0.38039500
H          -2.87410600      0.46130000      0.81243300
H          -2.49153400     -0.78461200     -0.52635300
