23
b3lypvdz=-276.183079621978 
C           0.56281400      1.40214800      0.05761300
C           1.87929000      0.74954000     -0.46959000
C           1.62432900     -0.71530500     -0.87265500
C           0.51162900      2.92721900     -0.11705200
C           3.10670500      0.81995400      0.46761700
C           0.20872700      1.01805900      1.50362300
C           3.65464600      2.21457200      0.79877500
H          -0.23764300      0.99426900     -0.58853000
H           2.15357100      1.29523100     -1.39449300
H           0.84523200     -0.78923800     -1.64984400
H           1.28993700     -1.32062100     -0.01157900
H           2.53765600     -1.18722400     -1.27140600
H          -0.50089000      3.30494500      0.10563100
H           0.76133900      3.22355200     -1.14978600
H           1.20588900      3.45288700      0.55529400
H           3.91440500      0.24147200     -0.01727800
H           2.88408100      0.27666800      1.40449100
H           0.92552000      1.44538400      2.22432600
H          -0.78747200      1.40756800      1.77206800
H           0.18890000     -0.07322900      1.65574200
H           3.83528600      2.80466900     -0.11579800
H           4.61325100      2.13717900      1.33832700
H           2.97280000      2.79710200      1.43700400
