14
b3lypvdz=-158.335162402979 
C           0.67525600      1.46257900     -0.07013700
C          -0.29343600      0.71071800     -0.98678500
C          -0.10100900     -0.80571200     -0.97083400
C           0.48217700      2.97881500     -0.09282700
H           1.71385400      1.21507500     -0.36178300
H           0.55381200      1.09151500      0.96570600
H          -1.33204700      0.95236900     -0.68974400
H          -0.17708300      1.08976800     -2.02013300
H           0.92042100     -1.08209200     -1.28710100
H          -0.80453900     -1.31525400     -1.64799500
H          -0.25678800     -1.22044400      0.04061500
H          -0.54216200      3.25651100      0.21234800
H           0.64632800      3.38851200     -1.10520000
H           1.17871600      3.49234100      0.58846900
