18
b3lypvdz=-235.679610100428 
C           0.57731300      1.36671900     -0.10581400
C           1.95865100      0.78881100     -0.44359100
C          -0.50845900      0.76993200     -1.03258100
C           0.61148500      2.89959700     -0.15293000
C          -1.92494100      1.11540300     -0.65644200
C          -2.86559500      0.22963100     -0.31535900
H           0.32332000      1.05972200      0.92781500
H           1.97856200     -0.30955000     -0.33837700
H           2.73526400      1.20447500      0.21915400
H           2.24377800      1.03325800     -1.48335400
H          -0.40703500     -0.33004900     -1.04329900
H          -0.30676200      1.11859600     -2.06653400
H          -0.34719700      3.35163900      0.14827100
H           0.85022800      3.25804200     -1.17146700
H           1.38504200      3.29595500      0.52506100
H          -2.19022300      2.18134800     -0.65807500
H          -3.87656900      0.54811900     -0.04533300
H          -2.65816400     -0.84694700     -0.29494500
