18
b3lypvdz=-235.684623699583 
C           1.91015300      0.80523300     -0.45672600
C           3.16932200      0.77185900      0.42312100
C           4.37619600      0.21096200     -0.28001200
C           5.11268900     -0.82058600      0.14883000
C           6.32741900     -1.38780300     -0.53435700
C           6.16912000     -2.87549500     -0.89172000
H           1.06111900      1.25970600      0.07986300
H           1.61581900     -0.21065500     -0.76888600
H           2.07790600      1.39752000     -1.37266700
H           3.39343500      1.80380300      0.75697300
H           2.97246400      0.18817600      1.33932700
H           4.65905600      0.70891100     -1.21921100
H           4.82101800     -1.31600100      1.08681100
H           7.20146500     -1.27394700      0.13596600
H           6.55614500     -0.80118400     -1.44124800
H           7.08942300     -3.28308700     -1.34223400
H           5.34379300     -3.02578300     -1.60738300
H           5.94085700     -3.47712800      0.00535500
