18
b3lypvdz=-235.684698046828 
C           3.24856800      0.82747500      0.44829300
C           3.49612100      2.28418400      0.88424000
C           4.43659300      0.22247900     -0.25592000
C           5.15782500     -0.81252600      0.19215200
C           6.34620900     -1.41673300     -0.51205000
C           6.10370900     -2.87545100     -0.94355200
H           2.37459400      0.79964000     -0.23096500
H           2.97960100      0.21514700      1.32668300
H           3.74769600      2.92394300      0.02051800
H           4.33413600      2.34529800      1.59885800
H           2.60294300      2.71394700      1.37000200
H           4.72557400      0.69856700     -1.20404900
H           4.86774000     -1.29004600      1.13923700
H           7.22034200     -1.38304800      0.16692000
H           6.61233900     -0.80629400     -1.39259400
H           6.99743100     -3.30348500     -1.42969900
H           5.26491500     -2.94146100     -1.65687700
H           5.85556400     -3.51383600     -0.07779700
