15
b3lypvdz=-196.393319272567 
C          -4.93818300     -1.68023400      0.67221500
C          -7.72931800     -0.45284100      0.06996500
C          -6.08905700     -2.45571800      0.08831400
C          -7.48897700     -1.91524000      0.45496600
C          -4.10705900     -2.12608300      1.61946300
H          -4.78205400     -0.66993900      0.27242900
H          -7.56090800     -0.28505200     -1.00882400
H          -7.06228100      0.22932000      0.62052100
H          -8.76404100     -0.14810900      0.29780400
H          -5.99305800     -2.45146400     -1.01516300
H          -6.01889500     -3.50951400      0.41080600
H          -8.24025400     -2.55195200     -0.04499800
H          -7.64818500     -2.04293600      1.54093400
H          -4.21102700     -3.12990400      2.04536800
H          -3.29140300     -1.50813300      2.00420100
