20
b3lypvdz=-236.903278551667 
C           0.57630200      1.28404600     -0.29698700
C           1.96421900      0.62392100     -0.42069200
C          -0.40112600      0.61627800     -1.27370500
C           0.63877700      2.81112200     -0.50253200
C           3.00255700      1.03955900      0.62481900
C          -0.70874300      3.53528600     -0.40292000
H           0.20782500      1.09465600      0.73244400
H           1.82633200     -0.47108400     -0.35875900
H           2.36138600      0.82149900     -1.43546300
H          -0.39729900     -0.47962500     -1.14619300
H          -1.43624500      0.96130100     -1.12720500
H          -0.11834200      0.83301200     -2.32064600
H           1.09686400      3.01967000     -1.48996600
H           1.32765100      3.24456600      0.24303800
H           3.26848100      2.10706600      0.55261200
H           3.93310900      0.46174100      0.50046700
H           2.63203400      0.85532800      1.64933500
H          -1.21799300      3.30627500      0.55074200
H          -1.39669000      3.25324600     -1.21637500
H          -0.57419900      4.62853400     -0.45521500
