21
b3lypvdz=-274.970357638439 
C           1.94989100      0.71328900     -0.46382600
C           1.47182700     -0.70781800     -0.77914400
C           3.21393700      0.77727700      0.42412900
C           3.51720000      2.22895200      0.84714800
C           4.42130100      0.18974400     -0.26582300
C           5.15648000     -0.84114100      0.16660100
C           6.39652500     -1.36901900     -0.49763300
H           1.14096800      1.27278600      0.04085100
H           2.15128700      1.25952200     -1.40563400
H           0.57484900     -0.69627000     -1.41996800
H           1.21239600     -1.25547700      0.14368500
H           2.25086800     -1.29006800     -1.29855200
H           3.01378500      0.18311100      1.33666300
H           3.77684200      2.84742000     -0.03051000
H           4.37012300      2.26936700      1.54361400
H           2.64714200      2.69532100      1.33981100
H           4.72125200      0.69783600     -1.19549500
H           4.85347200     -1.34603000      1.09461500
H           7.26206500     -1.31970600      0.18813100
H           6.28641400     -2.43065400     -0.78473800
H           6.64877500     -0.79654300     -1.40402600
