23
b3lypvdz=-276.185693482244 
C          -0.84717900     -1.22136100      0.42492000
C           0.61857600     -1.26718600     -0.05747200
C           1.49562300     -0.11493500      0.51447100
C           1.07648700      1.26939800     -0.00712200
C          -1.74859700     -2.32042500     -0.15315000
C           1.26381000     -2.64152700      0.19077900
C           1.59276700     -0.09954000      2.04878300
H          -1.27807500     -0.24045500      0.15845400
H          -0.87876200     -1.28177500      1.52856800
H           0.60305800     -1.11656600     -1.15571500
H           2.51619300     -0.30323400      0.12789600
H           0.08354200      1.56669700      0.37176000
H           1.04046000      1.29410500     -1.10972000
H           1.79206000      2.04180600      0.32047700
H          -2.79708000     -2.16805700      0.15284200
H          -1.44993900     -3.32267400      0.19508700
H          -1.71981600     -2.32951700     -1.25740500
H           2.32491600     -2.63436200     -0.11166500
H           0.76563600     -3.43315900     -0.38927300
H           1.21821300     -2.93477900      1.25409100
H           1.89162000     -1.07714200      2.45925400
H           2.34283000      0.63753200      2.37949400
H           0.63445700      0.18435800      2.51594600
