16
b3lypvdz=-288.572120213356 
N           5.62165000      1.74914700      0.71838100
C           1.37812300     -2.65895800      0.22490400
C           2.90586700     -0.66558800     -0.02168200
C           2.67579300     -1.98682300     -0.11022600
C           4.16920400      0.02035100     -0.36208700
C           4.98088200     -0.35997900     -1.36871600
C           4.48429200      1.23366800      0.45319000
H           6.37389000      1.18195000      0.29621100
H           0.62821100     -1.94127000      0.59219900
H           0.95750500     -3.17258300     -0.65923100
H           1.51780900     -3.43895800      0.99428200
H           2.10822000     -0.02131600      0.37049500
H           3.49264400     -2.63891100     -0.44470400
H           5.89635500      0.19449600     -1.59082900
H           4.74265900     -1.21252000     -2.00727600
H           3.60299500      1.73569500      0.89038900
