21
b3lypvdz=-274.968004783998 
C          -0.79232100     -1.20157400      0.32812500
C          -1.72853400     -2.33258000     -0.09606800
C          -3.74815200     -0.79207400      0.09270900
C          -3.18957700     -1.97441300     -0.19718300
C          -5.21717600     -0.48667700     -0.02783200
C          -5.10779700      2.05516000     -0.49904200
C          -5.56329500      0.67402300     -0.98167100
H          -0.83198400     -0.35571600     -0.37842600
H           0.24991600     -1.55698500      0.37328200
H          -1.05813500     -0.80930600      1.32425600
H          -1.62014600     -3.18622600      0.60139300
H          -1.39795400     -2.73901200     -1.07228700
H          -3.10924200      0.02458600      0.44919100
H          -3.84548600     -2.78439100     -0.54593200
H          -5.74295600     -1.39717400     -0.36569800
H          -5.62861900     -0.24256500      0.97226500
H          -4.00887600      2.14082100     -0.45389300
H          -5.49998500      2.27213100      0.51066400
H          -5.47289900      2.84934300     -1.17045400
H          -6.65982100      0.68721400     -1.11512800
H          -5.13026200      0.46261400     -1.97636900
