12
b3lypvdz=-157.109337683183 
C          -3.05029500      0.90181900      1.84731000
C          -3.70840100     -0.75117000      0.04186300
C          -2.89077100      0.46576900      0.37934400
C          -3.21678900     -1.95316000     -0.27315900
H          -2.72265200      0.10230500      2.53253600
H          -2.45001500      1.80084300      2.06349200
H          -4.10277000      1.13404600      2.08595300
H          -4.79952000     -0.62093200      0.08867000
H          -1.82697800      0.26772200      0.15817800
H          -3.19949200      1.30366200     -0.27488600
H          -2.13679900     -2.13072700     -0.33466100
H          -3.87121800     -2.80157600     -0.49024100
