14
b3lypvdz=-233.239741836656 
C           3.04073000     -0.78908900      0.25226200
C           2.89639100     -2.05572500     -0.16945600
C           4.08622100      0.15764400     -0.17236100
C           5.01970200     -0.24590500     -1.25005000
C           4.16536300      1.37527400      0.40842700
C           6.33580500      0.00508100     -1.26663600
H           2.32937400     -0.39775400      0.98856100
H           2.08552000     -2.68062300      0.21216300
H           3.57683200     -2.51592500     -0.89046900
H           4.57744700     -0.79840500     -2.08767900
H           4.90054500      2.11498800      0.08530200
H           3.48180100      1.66083000      1.21305500
H           6.83470900      0.51262300     -0.43552600
H           6.95866000     -0.30301300     -2.11039200
