15
b3lypvdz=-196.398497845823 
C          -3.00558100      0.54151900      0.33659200
C          -3.80502700     -0.70654200      0.02312300
C          -3.26145300      1.71293000     -0.62107900
C          -3.20337700     -1.85968500     -0.30116600
C          -5.30697300     -0.59614500      0.10359500
H          -1.93296600      0.28532000      0.32776300
H          -3.24389100      0.87098700      1.36674100
H          -4.30543400      2.06311600     -0.57013400
H          -3.05328800      1.42433700     -1.66544000
H          -2.61559500      2.56933100     -0.36896900
H          -2.11369400     -1.93863900     -0.35869700
H          -3.77972700     -2.76179000     -0.52416700
H          -5.70173500      0.14575200     -0.61126800
H          -5.79489600     -1.55899000     -0.10876000
H          -5.62896500     -0.25300100      1.10426700
