21
b3lypvdz=-274.962779657014 
C          -1.32000400      0.23491700      0.08293800
C          -2.80728300      0.44864300      0.40536700
C          -0.44194200      1.48365000      0.23595700
C           1.03661400      1.20321200     -0.04368600
C          -3.69428800     -0.71569600      0.02088000
C          -3.31816200     -1.93972200     -0.36274000
C          -3.03990800      0.78596100      1.89303900
H          -0.92180400     -0.56999000      0.72903900
H          -1.22915400     -0.13292400     -0.95491400
H          -3.16111800      1.31836100     -0.18560800
H          -0.54141700      1.89790500      1.25465100
H          -0.80826400      2.26977300     -0.45007200
H           1.43639600      0.44785200      0.65393500
H           1.18719200      0.81350600     -1.06593700
H           1.64914000      2.11315600      0.06446000
H          -4.77026300     -0.50797100      0.10453200
H          -2.26883800     -2.22974900     -0.46528500
H          -4.06189500     -2.70677900     -0.59361200
H          -2.60244200      0.00337000      2.53568700
H          -2.58621400      1.74916500      2.17405400
H          -4.11614400      0.84236000      2.12441400
