18
b3lypvdz=-235.677688767741 
C          -1.31410500      0.22372200      0.08801900
C          -2.80376300      0.44228100      0.39897100
C          -0.45140500      1.48211500      0.22231300
C          -3.68985900     -0.72545600      0.02426500
C          -3.31124100     -1.95499400     -0.33887400
C          -3.04804400      0.81034400      1.87728300
H          -0.91764800     -0.56897800      0.74906400
H          -1.22167200     -0.16129200     -0.94216000
H          -3.14949400      1.30267700     -0.21088600
H           0.58544200      1.28018200     -0.09281800
H          -0.41505500      1.85791700      1.25831600
H          -0.83765000      2.29815700     -0.41260300
H          -4.76631700     -0.51381200      0.09097500
H          -2.26095000     -2.24742700     -0.42377700
H          -4.05254700     -2.72431700     -0.57008200
H          -2.64328900      0.02649800      2.53988600
H          -2.57093800      1.76524600      2.14834200
H          -4.12586400      0.90153700      2.09056800
