23
b3lypvdz=-276.185515334099 
C          -1.38444000      0.21152700     -0.20533100
C          -0.94266100     -1.12372800      0.42903700
C          -2.86707300      0.51230500      0.11533100
C          -0.45917300      1.37149600      0.22556500
C           1.03104900      1.18550200     -0.08015200
C          -1.70088600     -2.37432500     -0.02240500
C          -3.40426200      1.86490200     -0.36589600
H          -1.29096100      0.11022200     -1.30713600
H           0.12734800     -1.27809800      0.21079300
H          -1.01937800     -1.02768800      1.53014900
H          -3.48974400     -0.28595300     -0.32258400
H          -3.01078000      0.43458200      1.21106100
H          -0.59461100      1.55543500      1.30906100
H          -0.79759700      2.29063000     -0.28014300
H           1.49217500      0.38301600      0.51601800
H           1.19482600      0.94056800     -1.14464900
H           1.59353800      2.10876700      0.13672000
H          -2.76541500     -2.35361900      0.26327300
H          -1.26234300     -3.27582600      0.43553600
H          -1.65128700     -2.50048200     -1.11840500
H          -4.48757200      1.94537700     -0.17531400
H          -3.24491500      2.00688800     -1.44965600
H          -2.92443700      2.71040300      0.15142700
