21
b3lypvdz=-274.960463396846 
C           0.62427400     -1.35576500     -0.01080000
C           1.53308100     -0.26583200      0.60543100
C          -0.31281600      1.56676900      0.29568800
C           1.14653000      1.14366300      0.09243100
C           2.96615000     -0.62195600      0.23454100
C           1.42889800     -0.32849600      2.14533100
C           3.83279700      0.07277400     -0.50824100
H          -0.42048600     -1.25008500      0.32370400
H           0.96379200     -2.36124800      0.28907500
H           0.64124300     -1.31169100     -1.11228400
H          -1.00917600      0.93992800     -0.28253600
H          -0.62185700      1.52118000      1.35293200
H          -0.45830900      2.60561200     -0.04329700
H           1.37522400      1.20379200     -0.98600600
H           1.80662100      1.87945500      0.58472600
H           3.29364900     -1.58929900      0.64031800
H           1.73392000     -1.32004800      2.51970000
H           2.08519100      0.42085600      2.61593000
H           0.39873000     -0.14631300      2.49127100
H           4.83298800     -0.32109200     -0.70855500
H           3.59215600      1.04469400     -0.94536000
