21
b3lypvdz=-274.965195579633 
C          -2.99772700      0.50106100      0.42459700
C          -1.64399200     -2.30589600     -0.29272500
C          -3.68109900     -0.79643000      0.05841800
C          -3.40911300      1.66451900     -0.51518400
C          -3.10910000     -1.97263800     -0.24334500
C          -3.22868800      0.83904000      1.90959100
C          -4.88525500      2.07925300     -0.48973400
H          -1.91102900      0.37097800      0.28275200
H          -0.99861200     -1.45064900     -0.04389800
H          -1.40213100     -3.12182500      0.41110900
H          -1.35131600     -2.67201400     -1.29384200
H          -4.77860500     -0.76310400      0.06045200
H          -3.12979000      1.38508500     -1.54669400
H          -2.78636100      2.54012000     -0.25383700
H          -3.78042600     -2.80779900     -0.48088300
H          -2.82801000      0.04392600      2.55810800
H          -2.72892200      1.78422600      2.18322100
H          -4.30136100      0.94420100      2.14472100
H          -5.55002800      1.26445300     -0.82088800
H          -5.21612100      2.39185200      0.51420200
H          -5.05851400      2.93034000     -1.16844200
