20
b3lypvdz=-236.904340861099 
C          -1.35608000      0.30299900     -0.12954400
C          -2.84570900      0.55520000      0.14296000
C          -0.41910500      1.46831300      0.21561900
C           1.06207700      1.09612500      0.10850300
C          -3.45152200      1.76083100     -0.58450100
C          -4.96368600      1.88140300     -0.38333600
H          -1.04004100     -0.58583700      0.44701000
H          -1.21922500      0.03462400     -1.19570900
H          -3.41529700     -0.35109500     -0.13738100
H          -2.99934800      0.68147700      1.23303000
H          -0.63751700      1.82150800      1.24202000
H          -0.62979800      2.32416600     -0.44958200
H           1.31973700      0.27673000      0.80132900
H           1.31672700      0.75309900     -0.91005800
H           1.71743500      1.94981500      0.34771500
H          -3.22282000      1.68687700     -1.66529400
H          -2.96502500      2.68855000     -0.23334600
H          -5.49268200      0.98769400     -0.75833600
H          -5.21657200      1.98576500      0.68631500
H          -5.38015000      2.75435700     -0.91121600
