18
b3lypvdz=-272.802074507103 
O          -7.12525200      0.83032000     -1.00620500
C          -2.83486700      0.57385200      0.36870200
C          -3.41190600      1.67189000     -0.54143900
C          -2.98782500      0.84712700      1.86710800
C          -4.93815200      1.84880800     -0.50683700
C          -5.71844200      0.63343200     -1.01391100
H          -7.30991800      1.61238000     -1.54806500
H          -1.76227600      0.45984900      0.13138900
H          -3.29710300     -0.39849600      0.12053900
H          -3.10489400      1.46199200     -1.58293200
H          -2.94005000      2.63544900     -0.27397200
H          -2.51019800      0.05798300      2.46996000
H          -2.51350000      1.80483900      2.14665500
H          -4.04585800      0.90083000      2.17356000
H          -5.29237400      2.09997200      0.50814200
H          -5.20069300      2.71420500     -1.14546100
H          -5.54670700     -0.23842300     -0.36298600
H          -5.35338700      0.35219300     -2.02534800
