16
b3lypvdz=-271.581914462171 
O          -7.09649000      0.68479900     -0.95932400
C          -2.85391100      0.46978200      0.41666600
C          -3.73887800     -0.68802100      0.02107400
C          -3.23317700     -1.89316300     -0.27721400
C          -5.23057400     -0.43434800     -0.00287500
C          -5.67889900      0.60371800     -1.03167600
H          -7.38826600      1.34236100     -1.60612700
H          -1.80100400      0.16237400      0.50552300
H          -2.90688400      1.29449500     -0.31560500
H          -3.17432400      0.89804500      1.38357300
H          -2.15704900     -2.08740600     -0.24655500
H          -3.88088900     -2.72888200     -0.55490200
H          -5.76836400     -1.37204900     -0.21589600
H          -5.56682600     -0.08191200      0.99053200
H          -5.21030500      1.58496600     -0.81242700
H          -5.33615900      0.29193900     -2.04016800
