13
b3lypvdz=-249.278423867321 
N           5.56444000      1.92014900      0.19063100
C           2.96065300     -0.85113800      0.30560800
C           2.65159600     -2.05154000     -0.21606100
C           4.22013700     -0.15972200      0.09137400
C           4.40086800      1.15245000      0.36843000
C           6.45524700      1.58467800     -0.66103100
H           2.21918600     -0.32674000      0.92100600
H           1.67689000     -2.51430000     -0.05035300
H           3.37082500     -2.60775700     -0.82509100
H           5.04673300     -0.75225300     -0.31597500
H           3.59168100      1.71929700      0.84202900
H           6.37137300      0.73312200     -1.36253400
H           7.37917100      2.17685400     -0.70823300
