19
b3lypvdz=-273.743638757494 
C           1.50108600     -0.23885100      0.63201600
C           1.14166900      1.05454600     -0.11903500
C           2.71062000     -0.93218100      0.00796100
C           1.69526300      0.02981100      2.13647200
C           2.58759900     -2.13293900     -0.58579600
C           4.01424900     -0.23488900      0.09384100
C           4.99861400     -0.28918300     -0.81550300
H           0.65169700     -0.93591100      0.52330400
H           0.26924200      1.54438600      0.34537200
H           0.89746100      0.84468400     -1.17294900
H           1.97719100      1.77541200     -0.10268500
H           1.99852700     -0.88345700      2.67352400
H           2.46244000      0.80027300      2.32116500
H           0.75948600      0.40167900      2.58595700
H           1.61494800     -2.62584700     -0.66821800
H           3.45164700     -2.66175000     -0.99458600
H           4.17009500      0.39585700      0.97635800
H           5.93923900      0.24438400     -0.65759600
H           4.89542600     -0.85912300     -1.74340400
