14
b3lypvdz=-158.333830407926 
C          -3.04350400      0.83259100      1.83085300
C          -1.41233100      0.23276200     -0.07355700
C          -0.88013100     -1.11743700      0.42600400
C          -2.86496200      0.52847500      0.33741800
H          -2.77014700     -0.02812200      2.46439900
H          -2.41381900      1.68555300      2.13695500
H          -4.09065000      1.09185100      2.06107600
H          -0.75886600      1.04656100      0.29303300
H          -1.34098200      0.25693800     -1.17651900
H           0.14495600     -1.29779400      0.06104800
H          -1.51252300     -1.94762800      0.06632400
H          -0.85306100     -1.16841600      1.52780600
H          -3.50725600     -0.32667800      0.05297300
H          -3.23192600      1.39184500     -0.24661300
