17
b3lypvdz=-272.530270939159 
C           1.24025300     -2.67255500      0.11521000
C           2.76504700     -0.67004600     -0.03859200
C           2.55298100     -1.99742200     -0.14429300
C           4.00681000      0.05613800     -0.29589500
C           5.07471400     -0.36848700     -1.01219200
C           6.31655100      0.37626000     -1.22349100
C           6.76062800      1.43374000     -0.52032800
H           0.48140500     -1.96082700      0.47676500
H           0.84763600     -3.15364500     -0.80034200
H           1.34271400     -3.47907800      0.86322100
H           1.92525000     -0.04894900      0.29793100
H           3.38714800     -2.64666600     -0.43767900
H           4.04775800      1.06553100      0.12897200
H           5.01609900     -1.33992100     -1.51473300
H           6.94283600      0.01101500     -2.04654600
H           6.21897200      1.82929300      0.34393900
H           7.69489600      1.93281900     -0.78674800
