20
b3lypvdz=-236.902788043069 
C          -1.40785500      0.26736600     -0.05816000
C           1.61651200     -0.19400800      0.56286100
C          -2.88453000      0.56887600      0.25499400
C          -0.43342200      1.38405100      0.34384800
C           1.04421600      1.11444100      0.00114500
C          -3.48353400      1.73575400     -0.53889600
H          -1.12898400     -0.66318500      0.46608700
H          -1.30367600      0.05766800     -1.14072600
H           1.14954700     -1.07697000      0.09739400
H           2.70124200     -0.26007900      0.37127600
H           1.46271100     -0.26680800      1.65481600
H          -3.47877100     -0.34049000      0.04973800
H          -2.99317100      0.77028300      1.33810400
H          -0.52605800      1.56522600      1.43287600
H          -0.72883800      2.32564800     -0.15102700
H           1.16766100      1.12023000     -1.09882400
H           1.64774200      1.96003300      0.37792300
H          -4.55935200      1.84739800     -0.32175300
H          -3.37559500      1.57356300     -1.62657700
H          -2.99914400      2.69420100     -0.28959700
