16
b3lypvdz=-288.573101880506 
N           5.72801000      1.76894100      0.33730500
C           1.28031900     -2.68076900      0.11353400
C           2.90575400     -0.74888400      0.20807700
C           2.62866700     -2.04379400     -0.04286200
C           4.21332300     -0.13702100      0.05840100
C           4.47262900      1.15750700      0.36160600
C           6.48881500      1.64023200     -0.67751400
H           0.53532300     -1.96205400      0.48978100
H           0.91049500     -3.08869800     -0.84529800
H           1.31866200     -3.53292300      0.81594300
H           2.09677800     -0.09181100      0.55253800
H           3.44224800     -2.69480400     -0.38852600
H           5.03905900     -0.77618600     -0.27473400
H           3.67993500      1.79318900      0.77284300
H           6.18120800      1.11849800     -1.60427200
H           7.49617500      2.07687800     -0.64562000
