20
b3lypvdz=-236.904237277085 
C          -1.47848700      0.16898000     -0.27294600
C          -0.93309000     -1.07974800      0.43603300
C          -2.97058300      0.43635300     -0.04931500
C          -1.58375400     -2.40731700      0.03655600
C          -3.42279100      1.81943000     -0.52904000
C          -4.91768800      2.06447600     -0.33218200
H          -0.89979400      1.04182500      0.08295200
H          -1.28112600      0.10702500     -1.36094900
H           0.15432300     -1.14086100      0.24754600
H          -1.04595700     -0.94087800      1.52848700
H          -3.57389300     -0.33919700     -0.55550600
H          -3.20309400      0.33406800      1.02958800
H          -2.65818100     -2.43473700      0.28693500
H          -1.10767300     -3.25102900      0.56175700
H          -1.49135700     -2.59382000     -1.04791900
H          -3.16012700      1.94461300     -1.59684700
H          -2.84365100      2.59278800      0.00888500
H          -5.52526500      1.33723500     -0.89705100
H          -5.20156400      1.96768000      0.73026500
H          -5.21734600      3.07001400     -0.67005000
