20
b3lypvdz=-236.903774407488 
C          -1.50509700      0.21239400     -0.17940900
C          -0.91351900     -1.09115600      0.37821800
C          -2.93662900      0.58735000      0.25713000
C          -1.64433600     -2.37564000     -0.02615900
C          -3.37727600      1.87714700     -0.44744400
C          -3.06898600      0.72958300      1.77997200
H          -0.83493500      1.04504700      0.11238700
H          -1.47579600      0.18197100     -1.28569500
H           0.13611800     -1.15617200      0.03882100
H          -0.86623500     -1.03486300      1.48099900
H          -3.62138300     -0.22127800     -0.06891500
H          -2.67665200     -2.40947500      0.36314100
H          -1.12289700     -3.26469100      0.36562100
H          -1.70128500     -2.48095800     -1.12435400
H          -4.40105100      2.16737000     -0.15730300
H          -3.35187400      1.76907200     -1.54495900
H          -2.70982500      2.71634400     -0.18061200
H          -2.86362100     -0.21164500      2.31439200
H          -2.36264500      1.48832600      2.16368500
H          -4.08347400      1.05617400      2.06478400
