23
b3lypvdz=-276.188625491554 
C          -1.38396300      0.33128900     -0.06810100
C          -0.86190500     -0.97226600      0.55280300
C           0.57829500     -1.35656300      0.17646900
C           1.63400800     -0.26800500      0.38616800
C          -2.90494900      0.46956900      0.02870600
C          -3.44483400      1.81734300     -0.46141800
C          -4.97088100      1.88345900     -0.46976100
H          -0.90115400      1.19601900      0.42293100
H          -1.08757100      0.39171800     -1.13346500
H          -1.52600800     -1.80370300      0.25048000
H          -0.95660200     -0.90591800      1.65380400
H           0.86191300     -2.25310700      0.75572500
H           0.59663300     -1.66715200     -0.88500500
H           1.46140200      0.60227300     -0.26784400
H           2.64123600     -0.65482700      0.15743100
H           1.64747700      0.10282000      1.42608800
H          -3.37649400     -0.34451100     -0.55376400
H          -3.22757100      0.30490100      1.07532400
H          -3.05902100      2.01973900     -1.47835300
H          -3.03722100      2.62467200      0.17466200
H          -5.40347300      1.11957700     -1.13795200
H          -5.38717700      1.70545600      0.53704900
H          -5.33743800      2.86361800     -0.81617800
