21
b3lypvdz=-274.961399451091 
C          -1.37145200      0.38082600     -0.13998100
C           1.60129400     -0.26251200      0.65108600
C          -0.35637000      1.43077400      0.32122000
C           1.11744200      1.07225600      0.05860400
C           3.01881300     -0.62663000      0.26424100
C           1.45979800     -0.31402500      2.18393500
C           3.86792300      0.06841800     -0.49944000
H          -1.29368400     -0.55510600      0.43679100
H          -2.40163100      0.75503800     -0.01725000
H          -1.23443900      0.12487500     -1.20551200
H           0.96307900     -1.07006700      0.24060900
H          -0.51132200      1.63804400      1.39516900
H          -0.56881800      2.38139300     -0.19850000
H           1.28012800      1.05330700     -1.03409900
H           1.75413500      1.88719100      0.44882400
H           3.36309000     -1.58237700      0.68208000
H           1.81360100     -1.28036200      2.57987500
H           2.05849800      0.47898000      2.66191500
H           0.41285200     -0.18891400      2.50102400
H           4.87049700     -0.31377400     -0.70913200
H           3.60636800      1.03126600     -0.94516000
