19
b3lypvdz=-310.867555504514 
O          -7.02131200      0.80779300     -0.98214200
C          -0.86930000     -1.07598100      0.33191000
C          -1.74880200     -2.25103900     -0.09283600
C          -3.83960000     -0.81541100      0.10341500
C          -3.22445400     -1.96445700     -0.20425000
C          -5.31347600     -0.55605600     -0.03455200
C          -5.61312700      0.63131400     -0.94756800
H          -7.21385100      1.56293800     -1.55535700
H          -0.95349200     -0.23383800     -0.37502200
H           0.18935400     -1.37889600      0.37379200
H          -1.15068400     -0.69883100      1.32939000
H          -1.60277200     -3.09486800      0.60932800
H          -1.39559000     -2.64194400     -1.06679100
H          -3.24475100      0.02324800      0.48615300
H          -3.83647200     -2.79615500     -0.57885700
H          -5.83187600     -1.44661600     -0.42829300
H          -5.76136300     -0.33185800      0.95186400
H          -5.09854000      1.53500900     -0.55559600
H          -5.19859100      0.43404900     -1.95758700
