17
b3lypvdz=-197.618546954504 
C          -1.42133100      0.21125300      0.03090200
C           1.62119500     -0.17260100      0.47881300
C          -2.89574900      0.57159300      0.22391600
C          -0.46998000      1.35293000      0.41664800
C           0.99884600      1.14666100      0.00863400
H          -1.18316100     -0.68550700      0.62960800
H          -1.24756100     -0.07663500     -1.02342200
H           1.11947000     -1.04277400      0.02544200
H           2.68655400     -0.23053000      0.20033100
H           1.55489200     -0.28735900      1.57546000
H          -3.55942300     -0.27297700     -0.02505000
H          -3.18715700      1.42107400     -0.41710400
H          -3.10471700      0.86410800      1.26812700
H          -0.53181600      1.51612800      1.51018600
H          -0.83282700      2.28875000     -0.04738400
H           1.08007700      1.21074400     -1.09313300
H           1.59478800      1.98984200      0.40182700
