15
b3lypvdz=-250.509213088458 
N           6.05749800      1.32832100      0.77474500
C           1.75879300      0.19600900      0.62668000
C           0.50268500      0.74084000     -0.07244300
C           2.85501100     -0.14490900     -0.34568000
C           4.15578600      0.20770900     -0.30648900
C           4.81273000      1.02624500      0.72049400
H           6.54982600      0.90054300     -0.02731800
H           1.48001200     -0.72911100      1.16852800
H           2.10499000      0.90775000      1.39197800
H          -0.31024900      0.89705700      0.65412100
H           0.13694400      0.03682900     -0.83888600
H           0.70577100      1.70191000     -0.57329300
H           2.53339400     -0.76937200     -1.18968900
H           4.81465100     -0.15056600     -1.10778200
H           4.17815700      1.42304400      1.52893400
