23
b3lypvdz=-276.187031605387 
C          -1.33693800      0.27790700      0.00057200
C          -0.80824700     -1.08505500      0.45882300
C          -2.83659400      0.50742400      0.27523500
C          -3.37752600      1.64277500     -0.61378000
C          -3.10406900      0.76138100      1.76618800
C          -4.89012500      1.91231600     -0.54454000
C          -5.76747600      0.70121100     -0.87988000
H          -0.75599100      1.08648400      0.48337800
H          -1.15550200      0.38684600     -1.08411600
H           0.25652200     -1.20973100      0.20067100
H          -1.36309400     -1.90416100     -0.03034600
H          -0.90429200     -1.22621200      1.54855800
H          -3.36384400     -0.42218800     -0.01754600
H          -3.11346100      1.40610000     -1.66195500
H          -2.83625700      2.57658000     -0.36560200
H          -2.76464300     -0.07689300      2.39563500
H          -2.56937800      1.66690400      2.10627300
H          -4.17517500      0.91329500      1.97622400
H          -5.16667800      2.30085700      0.45185300
H          -5.12250000      2.72739100     -1.25250100
H          -6.83096700      0.98697400     -0.93894400
H          -5.68234900     -0.09754600     -0.12423700
H          -5.48521700      0.26064000     -1.85306100
