19
b3lypvdz=-273.750994975743 
C           0.36633300     -1.12763800      0.09953000
C           1.58762800     -0.31036700      0.54462400
C           2.82235800     -0.68866600     -0.24606000
C           1.83136600     -0.46889600      2.05798600
C           3.89284900      0.10373300     -0.44052300
C           5.09973900     -0.30020900     -1.15062700
C           6.19257000      0.46670600     -1.30481200
H          -0.53563600     -0.82783700      0.65734600
H           0.52625900     -2.20606700      0.28017500
H           0.16069600     -0.99283800     -0.97523200
H           1.37407600      0.75758800      0.34961500
H           2.84800800     -1.70669100     -0.65836000
H           2.08185300     -1.51445600      2.30920000
H           2.66506400      0.16485700      2.39798600
H           0.93267200     -0.18621400      2.63294300
H           3.88463300      1.12348000     -0.03275100
H           5.09464800     -1.31058400     -1.57724800
H           6.24354400      1.47693800     -0.88606800
H           7.07114000      0.10526200     -1.84402300
