21
b3lypvdz=-274.965545509999 
C          -1.34551300      0.25901500      0.04227800
C          -2.83133300      0.46647200      0.35299200
C          -3.72730700     -0.71270900     -0.01926800
C          -3.24789200     -1.92444600     -0.33470400
C          -3.01554900      0.85910400      1.83588700
C          -5.22706700     -0.46868300     -0.00882500
C          -5.72423700      0.57466500     -1.02290100
H          -0.90582600     -0.54140800      0.66131600
H          -0.78160400      1.18291100      0.25424100
H          -1.18436400     -0.00537700     -1.01484500
H          -3.17591700      1.32794900     -0.25140700
H          -2.17945600     -2.14928900     -0.36270000
H          -3.92447400     -2.74728100     -0.58421200
H          -2.70504600      0.02939600      2.49468300
H          -2.39751000      1.73782700      2.08477900
H          -4.05984100      1.10877900      2.08081300
H          -5.73027400     -1.43028200     -0.20670600
H          -5.54638600     -0.15442200      1.00360200
H          -6.82672500      0.61148000     -1.02818200
H          -5.36404200      1.59052700     -0.78936300
H          -5.38903800      0.32337200     -2.04467800
