15
b3lypvdz=-196.398500926575 
C          -2.87871400      0.47937100      0.40121000
C          -3.73247800     -0.70531700      0.01683100
C          -3.20398900     -1.90722800     -0.25085100
C          -5.22782000     -0.47187400     -0.03030300
C          -5.67477200      0.60137500     -1.03494700
H          -1.82223800      0.19518100      0.52174000
H          -2.93439800      1.28250700     -0.35495800
H          -3.22964600      0.92586700      1.35021200
H          -2.12516300     -2.08471700     -0.20106600
H          -3.83429200     -2.75753500     -0.52731100
H          -5.73116200     -1.42546800     -0.26371400
H          -5.57187100     -0.17074800      0.97985700
H          -6.77396300      0.68537600     -1.05209300
H          -5.27186200      1.59570800     -0.77909100
H          -5.33633300      0.35140300     -2.05561600
