20
b3lypvdz=-236.90463514241 
C          -1.35498600      0.20799800     -0.16739700
C          -0.93177200     -1.07059800      0.56724200
C          -2.84580600      0.49764000      0.09708400
C          -0.43428000      1.38139500      0.19317800
C          -3.39508700      1.79298900     -0.51164700
C          -4.91610000      1.89545100     -0.40621400
H          -1.24155700      0.02376900     -1.25409100
H           0.11446200     -1.33765500      0.34431100
H          -1.56597100     -1.92647900      0.28311500
H          -1.01798700     -0.94534000      1.66163100
H          -3.43288800     -0.35378000     -0.29575800
H          -3.02560500      0.49909800      1.19053900
H           0.62296000      1.11464200      0.02539100
H          -0.54314800      1.66659700      1.25531400
H          -0.64481900      2.27461700     -0.41547100
H          -3.09354100      1.85782500     -1.57411300
H          -2.93449500      2.66462300     -0.01509700
H          -5.41351300      1.05750800     -0.92336200
H          -5.24755800      1.87131500      0.64603900
H          -5.29540900      2.82738700     -0.85579400
