17
b3lypvdz=-197.619901472477 
C          -1.36024700      0.21726800     -0.15502500
C          -0.90237800     -1.08913600      0.50776000
C          -2.83879600      0.49269900      0.18485100
C          -0.43387500      1.37959100      0.23296200
C          -3.43944000      1.75657200     -0.43743600
H          -1.28937500      0.08835100     -1.25407500
H           0.14619400     -1.32292900      0.25821100
H          -1.52356500     -1.94245100      0.18757900
H          -0.97564200     -1.02234100      1.60885200
H          -3.43346100     -0.38428400     -0.13189800
H          -2.94260800      0.53921700      1.28761000
H           0.61800300      1.14519500     -0.00421100
H          -0.49237700      1.59170500      1.31653600
H          -0.68728300      2.30814000     -0.30289500
H          -4.50971800      1.85124700     -0.18956400
H          -3.35216900      1.74658700     -1.53911300
H          -2.94266300      2.67117000     -0.07484200
