17
b3lypvdz=-197.617806230926 
C          -2.84438900      0.57132300      0.35859000
C          -3.38364000      1.69331000     -0.54371300
C          -3.03240900      0.82685300      1.85936000
C          -4.91100400      1.88244700     -0.54216200
C          -5.70035000      0.64561000     -0.98926300
H          -1.76611600      0.44665800      0.15096900
H          -3.31502500     -0.38932900      0.08402800
H          -3.05700100      1.49619000     -1.58280900
H          -2.90686700      2.64668800     -0.24775900
H          -2.58178300      0.01968400      2.46031200
H          -2.55271300      1.77383900      2.16371100
H          -4.09902000      0.88789700      2.13567800
H          -5.25346900      2.19461700      0.46160700
H          -5.15468700      2.72298100     -1.21643800
H          -6.77467400      0.87818300     -1.08272800
H          -5.60483400     -0.18630500     -0.27223100
H          -5.34861700      0.28295400     -1.97135000
