23
b3lypvdz=-276.187201797644 
C          -1.41592800      0.31553600      0.04982100
C          -0.79163200     -1.05512500      0.33686900
C           0.68691000     -1.21534300     -0.07038500
C           1.63048400     -0.14036800      0.51630600
C          -2.92756600      0.33524200      0.28723400
C           1.16192200     -2.64243700      0.24203800
C           1.65933200     -0.01295800      2.04275700
H          -0.93716100      1.08739800      0.67732000
H          -1.20340300      0.60444300     -0.99676700
H          -1.37388000     -1.82645900     -0.20100500
H          -0.91116400     -1.29299100      1.41176300
H           0.73495600     -1.08663500     -1.16921000
H           1.36778200      0.84043400      0.08141000
H           2.65221400     -0.35882500      0.15436900
H          -3.44482700     -0.38653100     -0.36689000
H          -3.35921200      1.32963800      0.08700700
H          -3.17239100      0.06508700      1.32941900
H           2.20988800     -2.79731900     -0.06616400
H           0.54576900     -3.38643600     -0.28821100
H           1.08896400     -2.86782400      1.31984000
H           1.93405200     -0.96032400      2.53510900
H           2.40011300      0.74210600      2.35251200
H           0.68497700      0.30259200      2.45105900
