18
b3lypvdz=-235.682845682176 
C          -2.92832600      0.55310500      0.38029200
C          -1.72349700     -2.33581500     -0.23047500
C          -3.67838800     -0.70285300      0.00157800
C          -3.38627800      1.74690600     -0.47694600
C          -3.17052400     -1.91989800     -0.24602800
C          -3.10703300      0.85881800      1.88026600
H          -1.85097600      0.40497400      0.18979300
H          -1.04635200     -1.52560400      0.07849200
H          -1.57206800     -3.18000900      0.46552300
H          -1.40434600     -2.68594600     -1.22961500
H          -4.77121100     -0.59145100     -0.05134400
H          -4.45993600      1.95897800     -0.32289300
H          -3.23091900      1.55290200     -1.55192300
H          -2.82423100      2.65865900     -0.21223300
H          -3.87930300     -2.72119300     -0.49246200
H          -2.73762400      0.02899400      2.50418300
H          -2.55366500      1.77015800      2.16774700
H          -4.17112400      1.01817600      2.13024300
