16
b3lypvdz=-288.570733092574 
N           5.65418600      1.66529300      0.41904300
C           1.63176000     -0.08930500      0.57466500
C           2.84369200     -0.88882700      0.16081200
C           2.73792800     -2.19200400     -0.17169300
C           4.14413800     -0.22283400      0.08714300
C           4.39467200      1.05975900      0.43810200
C           6.35867100      1.62570500     -0.64262200
H           0.72940300     -0.71741300      0.57417500
H           1.46132000      0.75750800     -0.11098300
H           1.75341500      0.33828400      1.58488200
H           1.77637500     -2.71013400     -0.15171400
H           3.61159000     -2.77316400     -0.47799200
H           4.98485300     -0.83478700     -0.25698400
H           3.61310200      1.69053100      0.87260300
H           5.99708500      1.18557100     -1.59157500
H           7.37060800      2.05281600     -0.62756000
