18
b3lypvdz=-235.683962116278 
C          -0.83422300     -0.99865400      0.13698900
C           0.64983500     -1.37028000      0.15762100
C          -1.73326400     -2.15672400     -0.30535600
C          -3.83770200     -0.77996400      0.10706100
C          -3.21815900     -1.89250000     -0.30760300
C          -5.32375900     -0.56689100      0.10514300
H          -0.99748600     -0.13748400     -0.53498400
H          -1.14084900     -0.66167500      1.14377600
H           1.27405800     -0.53425400      0.51280000
H           0.83951600     -2.22700500      0.82693300
H           1.01153200     -1.65442900     -0.84603200
H          -1.53840900     -3.03605900      0.34062900
H          -1.42662100     -2.49191000     -1.31630800
H          -3.23828200      0.05290300      0.49219600
H          -3.83780900     -2.71793900     -0.68500700
H          -5.60760600      0.30601600     -0.50953900
H          -5.86260300     -1.44394400     -0.28811900
H          -5.70356900     -0.35980600      1.12229800
