18
b3lypvdz=-235.682357487068 
C          -1.39585800      0.28757900     -0.03356100
C          -2.87784400      0.44771300      0.33400200
C          -3.74377700     -0.76438200      0.00700800
C          -3.25059500     -1.99099600     -0.21567600
C          -3.01751700      0.84564200      1.81862600
C          -5.23388400     -0.50618700     -0.05270600
H          -0.90056100     -0.47830300      0.58663600
H          -0.85902700      1.23736900      0.12866300
H          -1.26993900      0.00353100     -1.09070700
H          -3.27486800      1.28801300     -0.26914100
H          -2.17995100     -2.20847600     -0.19199200
H          -3.91237100     -2.83407500     -0.43348100
H          -2.65100600      0.03676700      2.47339500
H          -2.42595000      1.75076400      2.03669300
H          -4.06194000      1.05930400      2.09845600
H          -5.46630500      0.27704200     -0.79664800
H          -5.79327500     -1.41282800     -0.33099100
H          -5.62373300     -0.15247900      0.91862300
