15
b3lypvdz=-196.394886366758 
C          -0.85677200     -0.97175500      0.39826800
C           0.55050800     -1.24297000     -0.13644200
C           1.66100100     -0.57413600      0.69236700
C           3.03444400     -0.82995700      0.13576000
C           3.89709200      0.10754700     -0.26728000
H          -1.09187800      0.10624500      0.37598300
H          -1.62008600     -1.49262300     -0.20119100
H          -0.96396000     -1.31527000      1.44213700
H           0.73135600     -2.33371500     -0.16173500
H           0.62553200     -0.89300800     -1.18179700
H           1.48073900      0.51406800      0.75674100
H           1.61160100     -0.96427100      1.72816600
H           3.32260100     -1.88671200      0.04537600
H           4.87562700     -0.15615300     -0.67723600
H           3.65499400      1.17411000     -0.19931600
