21
b3lypvdz=-274.962730894295 
C          -1.34275500      0.15254700      0.03852700
C           1.70092600     -0.07251700      0.53281200
C          -2.83356500      0.44275400      0.21850300
C          -0.45552800      1.35448500      0.38730400
C           1.02723500      1.20075300      0.00718500
C          -3.77764400     -0.71080200     -0.00009800
C          -3.45077100     -1.97792900     -0.27310600
H          -1.05954400     -0.70802700      0.66831200
H          -1.15722600     -0.16138100     -1.00639300
H           1.26617800     -0.97897200      0.08051500
H           2.77861300     -0.07741400      0.29866100
H           1.59565300     -0.16811600      1.62854800
H          -3.13403100      1.27238100     -0.45120500
H          -3.01085300      0.84191500      1.23832200
H          -0.54026600      1.55722000      1.47256900
H          -0.85373700      2.25346700     -0.11859700
H           1.12460800      1.23223900     -1.09458100
H           1.57622600      2.08332900      0.38206300
H          -4.84243800     -0.45552200      0.08905100
H          -2.41287900     -2.30724000     -0.37596400
H          -4.22060100     -2.74256800     -0.40702600
