17
b3lypvdz=-197.618980862881 
C          -1.37677000      0.31151700     -0.00918700
C          -2.84140000      0.58930300      0.36066400
C          -0.42967000      1.49814700      0.21088200
C           1.03739100      1.14945500     -0.04195000
C          -3.08716500      0.70909200      1.86761500
H          -1.01568200     -0.55492000      0.57698700
H          -1.31908700      0.00183300     -1.06910500
H          -3.47500800     -0.22050900     -0.04256200
H          -3.17851700      1.51175400     -0.14827000
H          -0.53785000      1.87987300      1.24217500
H          -0.73700400      2.32867700     -0.45129100
H           1.37692600      0.34594400      0.63346800
H           1.19517400      0.79252700     -1.07501800
H           1.69633000      2.01846400      0.11862000
H          -2.74589200     -0.20028500      2.39314100
H          -2.54724500      1.55966300      2.31416500
H          -4.15713300      0.84326500      2.09506500
