17
b3lypvdz=-197.619978221938 
C          -1.42472000      0.26392300     -0.12311700
C          -0.92856900     -1.10825300      0.36965000
C          -2.86187600      0.56926900      0.32634100
C          -0.46463900      1.37531200      0.32618000
C          -1.72102700     -2.31776000     -0.14148000
H          -1.41231800      0.24381700     -1.23192300
H           0.12778600     -1.22475500      0.06376900
H          -0.93208400     -1.11270300      1.47732900
H          -3.58735500     -0.14233900     -0.09842500
H          -3.16786300      1.57901300      0.00328800
H          -2.95147400      0.52734100      1.42775700
H           0.56062000      1.18836500     -0.03630700
H          -0.42457900      1.44657800      1.42831900
H          -0.78268200      2.35756700     -0.06218600
H          -2.75636100     -2.32274600      0.23784800
H          -1.24974000     -3.25879700      0.18763800
H          -1.76352200     -2.33193100     -1.24488200
