17
b3lypvdz=-197.61836393431 
C           0.65076200     -1.36689400      0.00705700
C           1.47414700     -0.18127300      0.53376300
C          -0.47599800      1.54568200      0.29850700
C           0.98551200      1.18303700     -0.00400000
C           1.55623900     -0.20494900      2.06747400
H          -0.37649900     -1.36225600      0.40980300
H           1.11288100     -2.32367200      0.30427900
H           0.58345600     -1.35543500     -1.09457500
H           2.50531500     -0.31167300      0.15280600
H          -1.17986400      0.83856900     -0.16935900
H          -0.68304800      1.56187200      1.38203000
H          -0.71276900      2.54755100     -0.09719400
H           1.13737900      1.20493300     -1.09964700
H           1.64256400      1.97183300      0.40586800
H           1.99531600     -1.15258500      2.42313300
H           2.18850200      0.61481700      2.44773200
H           0.56080300     -0.10796000      2.53432300
