23
b3lypvdz=-276.187169017062 
C          -1.36062700      0.34247900     -0.05591400
C          -2.84898200      0.59082500      0.27388000
C          -0.39440900      1.50742800      0.20574600
C           1.07346000      1.10206000      0.04203100
C          -3.44053800      1.75922300     -0.53715100
C          -3.07835900      0.74832900      1.78561800
C          -4.96117000      1.91380800     -0.43389400
H          -1.02026400     -0.53151800      0.52994800
H          -1.27738900      0.04373800     -1.11839200
H          -3.38905700     -0.32366600     -0.04306000
H          -0.54571900      1.90082400      1.22767300
H          -0.62194000      2.34340200     -0.47854700
H           1.34590100      0.30115100      0.75056600
H           1.27569600      0.71974200     -0.97431000
H           1.75328400      1.95090900      0.22384400
H          -3.16473100      1.61867400     -1.59908500
H          -2.96121700      2.70357500     -0.21941500
H          -2.58500700     -0.06217900      2.34709500
H          -2.67269100      1.70282800      2.16479200
H          -4.14907300      0.72214500      2.04328600
H          -5.48178700      0.98347800     -0.72257300
H          -5.28496200      2.17059800      0.58795500
H          -5.32432000      2.71214600     -1.10109200
