17
b3lypvdz=-197.619781310853 
C          -1.40947200      0.23336400     -0.06806000
C          -0.88800300     -1.11782900      0.44135400
C          -2.87056700      0.54211600      0.31255100
C          -3.40957900      1.72030300     -0.51303900
C          -3.02588600      0.82326600      1.81544300
H          -0.76127700      1.04680800      0.30970800
H          -1.31641500      0.25654200     -1.16972500
H           0.14150700     -1.30086100      0.09076300
H          -1.51663700     -1.94706300      0.07362800
H          -0.87588600     -1.16813200      1.54327500
H          -3.48165500     -0.34794700      0.06331600
H          -4.46111800      1.93968300     -0.26050000
H          -3.36200500      1.50440300     -1.59458800
H          -2.82082100      2.63570100     -0.32525600
H          -2.72206700     -0.03704900      2.43426800
H          -2.40821300      1.68796300      2.11693500
H          -4.07350700      1.05823000      2.06952800
