8
b3lypvdz=-79.764247384373 
C          -1.39325700      0.23950900     -0.06478300
C          -0.88764300     -1.12280900      0.42318400
H          -2.42659800      0.42612600      0.27405800
H          -0.76415800      1.06009900      0.31793200
H          -1.38540500      0.29868900     -1.16679600
H           0.14569900     -1.30942600      0.08434300
H          -1.51674200     -1.94339900      0.04046700
H          -0.89549600     -1.18199000      1.52519600
