12
b3lypvdz=-157.114962898022 
C          -5.23545900     -0.50683600     -0.04655600
C          -3.74407800     -0.73174800      0.01100600
C          -2.90979300      0.48807200      0.31750500
C          -3.19743200     -1.93821100     -0.19288200
H          -5.48980400      0.25055100     -0.81003600
H          -5.78168800     -1.43184200     -0.28820500
H          -5.61452800     -0.12442700      0.91976200
H          -1.83414200      0.25361300      0.34880400
H          -3.06843700      1.27616400     -0.44139800
H          -3.19707000      0.92327200      1.29293200
H          -2.11440100     -2.09113400     -0.14865700
H          -3.81426700     -2.81507400     -0.41097500
