23
b3lypvdz=-276.186998264918 
C          -1.41379600      0.30596800     -0.04011500
C          -0.85986200     -1.05252100      0.43782700
C           0.59516600     -1.27082000     -0.02902100
C           1.62068500     -0.23457900      0.43776500
C          -2.87946100      0.62580000      0.30218700
C          -1.72528300     -2.23837900     -0.01157800
C          -3.18349900      0.71773100      1.80050700
H          -0.78432600      1.10931100      0.38370900
H          -1.28403900      0.36878200     -1.13832600
H          -0.85137400     -1.04903300      1.54644800
H           0.91533300     -2.26858800      0.32298000
H           0.60659000     -1.32400300     -1.13571600
H           1.44951700      0.75855500     -0.00826900
H           2.64053800     -0.54530500      0.15614700
H           1.60175400     -0.11233700      1.53523700
H          -3.54865000     -0.12139400     -0.16188400
H          -3.13938100      1.58563100     -0.17903800
H          -2.73549800     -2.21000300      0.42530900
H          -1.26316700     -3.19260800      0.29290600
H          -1.83557000     -2.25934400     -1.11112800
H          -3.04973000     -0.25003500      2.31286100
H          -2.52108100      1.44594800      2.30044500
H          -4.22246800      1.04152300      1.97864600
