19
b3lypvdz=-273.743943262499 
C           1.52373400     -0.21934500      0.68725900
C           1.02557600      1.02117100     -0.08038400
C           2.80822700     -0.80302000      0.09873400
C           1.61140000      0.03661400      2.20425000
C           2.77804500     -2.01354200     -0.49657000
C           4.10029100     -0.09377600      0.14404400
C           4.38200600      1.13125900      0.61831700
H           0.75507200     -0.99875400      0.54190100
H           0.05356100      1.35183500      0.32229800
H           0.88879000      0.78619000     -1.14860400
H           1.72264500      1.87007300     -0.00751200
H           1.94935800     -0.86589800      2.73944100
H           2.30931600      0.84819000      2.45725600
H           0.62180200      0.32027300      2.60056000
H           1.85573000     -2.59534700     -0.57224400
H           3.68065400     -2.45658000     -0.92678200
H           4.92907100     -0.66920000     -0.28636100
H           5.40239400      1.52042800      0.57297900
H           3.63102800      1.78942800      1.05511800
