18
b3lypvdz=-235.679079900287 
C           0.53617700     -1.19566000      0.00922200
C           1.58156800     -0.21940600      0.59650500
C           1.27010100      1.20966800      0.12369400
C           2.95965600     -0.69573200      0.17068900
C           1.51513000     -0.26954900      2.13813400
C           3.84794500     -0.06030100     -0.59847700
H          -0.48217600     -0.91615100      0.32906700
H           0.72085500     -2.23033400      0.34475300
H           0.56573800     -1.18871000     -1.09281100
H           0.26759900      1.51351500      0.46736300
H           1.28464900      1.29036000     -0.97522800
H           1.99446600      1.93433400      0.52856800
H           3.22063100     -1.69077300      0.55713400
H           1.74977600     -1.27897800      2.51628700
H           2.23704700      0.43046500      2.58766300
H           0.50823900      0.00326600      2.49768800
H           4.80952500     -0.52037000     -0.84174700
H           3.66107300      0.93295500     -1.01460400
