23
b3lypvdz=-276.186819511099 
C          -1.40795800      0.33916400      0.03171600
C          -0.87937600     -1.03552500      0.46673400
C           0.57425500     -1.32434600      0.04720800
C           1.62996500     -0.29993700      0.49702300
C          -2.89872500      0.58175500      0.31881500
C           1.72281500     -0.08246700      2.01060800
C          -3.24623500      0.72836400      1.80575400
H          -0.82371900      1.13658200      0.52878200
H          -1.22600500      0.46376700     -1.05305200
H          -1.52471500     -1.81932500      0.02657400
H          -0.98182800     -1.14586500      1.56238700
H           0.85928500     -2.32246400      0.42973000
H           0.61707000     -1.39834200     -1.05627800
H           1.43663600      0.67007500      0.00269600
H           2.61207000     -0.63509800      0.11625400
H          -3.49509000     -0.24053800     -0.12198900
H          -3.21517200      1.49555600     -0.21552600
H           1.93411100     -1.02723100      2.54229300
H           2.52814900      0.62745600      2.26217100
H           0.78789700      0.32847000      2.42791800
H          -3.06074200     -0.19975800      2.37298800
H          -2.64341600      1.52513900      2.27626200
H          -4.30827100      0.99066700      1.94643100
