18
b3lypvdz=-289.794360189501 
N           5.00239500      2.09619500     -0.28901000
C          -0.77775000     -0.85525100      0.35014200
C           0.65364200     -1.07288800     -0.15873000
C           1.72503100     -0.67261400      0.88006000
C           3.11627800     -1.00900300      0.41633300
C           4.09281300     -0.17008600      0.01767000
C           4.06363700      1.29641200      0.05758700
H           5.80812600      1.54710300     -0.63679500
H          -0.98695000      0.21623000      0.51243100
H          -1.52269900     -1.23930700     -0.36537200
H          -0.94017500     -1.37642800      1.31018500
H           0.78877200     -2.13626300     -0.42826600
H           0.81582400     -0.49039200     -1.08273600
H           1.62520500      0.39493300      1.12785800
H           1.51701900     -1.24205300      1.80636600
H           3.32313800     -2.08464400      0.33748300
H           5.04566400     -0.59862400     -0.32155800
H           3.14343100      1.76827800      0.43864900
