14
b3lypvdz=-158.333772586551 
C          -0.89848000     -1.12497900      0.39698200
C           0.57571900     -1.27891200      0.00147500
C           1.50452500     -0.19221900      0.56449900
C           1.58777800     -0.15008700      2.09466800
H          -1.28000400     -0.12412300      0.12592700
H          -1.52504600     -1.86937100     -0.12063800
H          -1.05143000     -1.26262300      1.48062200
H           0.94101400     -2.27167600      0.32583000
H           0.65314900     -1.26824300     -1.10125100
H           1.17464300      0.79514200      0.18849500
H           2.51888300     -0.35388100      0.15629000
H           1.88791100     -1.13062000      2.50462100
H           2.33264600      0.59119400      2.42728000
H           0.62429100      0.12649800      2.55350100
