16
b3lypvdz=-234.463024375155 
C           1.65838800     -0.03553200      0.78068700
C           0.94285400      0.95337500     -0.15629500
C           2.84269900     -0.72372500      0.12641600
C           2.70926500     -1.92527600     -0.47006700
C           4.15319600     -0.05434300      0.11804500
C           4.45732400      1.12108100      0.69310400
H           0.93838500     -0.79865200      1.11858800
H           1.99315200      0.49664700      1.68676000
H           0.13473600      1.48210000      0.37648800
H           0.49615900      0.42427200     -1.01385300
H           1.63835400      1.70869800     -0.55703700
H           1.75402400     -2.45737600     -0.47923600
H           3.55448900     -2.41099600     -0.96553800
H           4.94663300     -0.59542500     -0.41147500
H           5.46947800      1.52898300      0.63588700
H           3.72036500      1.71866800      1.23512600
