18
b3lypvdz=-235.682709025374 
C          -2.96243600      0.51103300      0.34456200
C          -3.79328500     -0.72349300      0.01364400
C          -3.31539000      1.71874300     -0.54145600
C          -3.20370200     -1.89706300     -0.25408100
C          -3.06106600      0.88331400      1.83827400
C          -5.29773700     -0.58463700      0.00826700
H          -1.90996900      0.24505100      0.13903700
H          -4.33512000      2.08788400     -0.33590200
H          -3.25414000      1.46346300     -1.61319900
H          -2.62081900      2.55377600     -0.35154800
H          -2.11397900     -1.99982500     -0.26814900
H          -3.78924200     -2.79504400     -0.47266400
H          -2.76033700      0.04036000      2.48083200
H          -2.40126900      1.73716800      2.06778600
H          -4.08713900      1.17680400      2.12039800
H          -5.63653600      0.12066500     -0.77013300
H          -5.78427300     -1.55331900     -0.18182600
H          -5.67825900     -0.19198100      0.96855900
