20
b3lypvdz=-236.904603770685 
C          -1.43104100      0.23966000     -0.08902100
C          -0.89020600     -1.12567200      0.35099900
C           0.59995800     -1.29440300      0.04506300
C          -2.88369800      0.54570800      0.32391500
C          -3.45290500      1.70137900     -0.50876500
C          -2.99034800      0.85795500      1.82372200
H          -0.77910300      1.03917500      0.31603700
H          -1.34288900      0.31577500     -1.18956700
H          -1.46916500     -1.92153600     -0.15409200
H          -1.06043600     -1.27269800      1.43334100
H           1.20468800     -0.55108900      0.59195400
H           0.96834000     -2.29207400      0.33543200
H           0.80826100     -1.15616600     -1.03054100
H          -3.49500200     -0.35460200      0.11252300
H          -4.48164200      1.95421200     -0.20232000
H          -3.47182200      1.44935200     -1.58265400
H          -2.83732600      2.61106900     -0.38881300
H          -2.64905100      0.02274000      2.45623400
H          -2.37049800      1.73728500      2.07691800
H          -4.02781400      1.09313000      2.11463700
