14
b3lypvdz=-158.333773249989 
C          -3.03814000      0.81961000      1.84560100
C          -4.92065400      1.91425200     -0.52638400
C          -3.39953600      1.71533700     -0.54714300
C          -2.89599200      0.56510400      0.33977900
H          -2.61487400     -0.01363900      2.43076600
H          -2.50401700      1.73861400      2.14479500
H          -4.09347300      0.93152600      2.14667300
H          -5.44394300      0.99085900     -0.83111700
H          -5.28899200      2.19541600      0.47436600
H          -5.22436100      2.71192800     -1.22405800
H          -3.08217600      1.52243500     -1.58828700
H          -2.90043600      2.65416900     -0.24139100
H          -1.83084700      0.37987500      0.11039000
H          -3.43396000     -0.36248600      0.06851100
