23
b3lypvdz=-276.18982829179 
C          -1.39524800      0.29353300     -0.11057300
C          -0.81022900     -1.07147300      0.26914300
C           0.68603500     -1.20298900     -0.03821800
C          -2.85392800      0.52809200      0.33033700
C           1.23374300     -2.60408100      0.24394500
C          -3.49956400      1.65615300     -0.48442700
C          -2.94519300      0.82769200      1.83324500
H          -0.76702400      1.09909400      0.31814900
H          -1.32304800      0.41357200     -1.20799900
H          -1.36395800     -1.86302000     -0.27131800
H          -0.97366500     -1.27482700      1.34484700
H           1.24451500     -0.45785400      0.55847800
H           0.86995700     -0.93508500     -1.09606800
H          -3.42294600     -0.40094000      0.12665900
H           2.31149400     -2.67654200      0.02154800
H           0.71654000     -3.36363100     -0.36616000
H           1.08894500     -2.88168800      1.30314300
H          -4.53247000      1.85523400     -0.15315200
H          -3.53176400      1.40604300     -1.55844100
H          -2.92813100      2.59563100     -0.37563700
H          -2.53192500      0.01554700      2.45231900
H          -2.38015400      1.74629700      2.07581700
H          -3.98888100      0.99004200      2.15026000
