23
b3lypvdz=-276.188913898585 
C          -1.42505700      0.30516900     -0.06776800
C          -0.84477900     -1.02604400      0.43554400
C           0.61279300     -1.29122600      0.01459700
C           1.63448500     -0.26953000      0.52967900
C          -2.90215200      0.55228000      0.30270100
C          -3.47001900      1.72791200     -0.50818300
C          -3.08755100      0.80475700      1.80719500
H          -0.82586300      1.15006000      0.31933300
H          -1.32571100      0.33728600     -1.16971200
H          -1.47477000     -1.85097100      0.05334600
H          -0.91023700     -1.07459700      1.53893800
H           0.90191100     -2.29426200      0.37724400
H           0.67059900     -1.33460300     -1.08988600
H           1.48310600      0.72768800      0.08416400
H           2.66107800     -0.58554000      0.27779800
H           1.57682700     -0.16183600      1.62755000
H          -3.48069900     -0.35273000      0.03104300
H          -4.53077900      1.90915600     -0.26424100
H          -3.40293400      1.53580100     -1.59308700
H          -2.91307000      2.65784100     -0.29507900
H          -2.77699100     -0.05833000      2.41834100
H          -2.49500900      1.67795500      2.13386300
H          -4.14457800      1.01256200      2.04562100
