13
b3lypvdz=-195.196040890169 
C           0.54371900     -1.27770100      0.06711600
C           1.54754900     -0.15794500      0.44716900
C           1.36976300     -2.59037700      0.06120200
C           2.89134900     -0.78225300      0.14374300
C           2.79483400     -2.09996600     -0.06861800
H          -0.32814300     -1.32141400      0.73634700
H           0.16227000     -1.08632400     -0.94989200
H           1.36618000      0.78183100     -0.10140100
H           1.48403900      0.10764200      1.52142000
H           1.06636100     -3.28627000     -0.73955100
H           1.25064100     -3.15632200      1.00702500
H           3.82453200     -0.21304400      0.14547400
H           3.63680500     -2.76775700     -0.26713200
