18
b3lypvdz=-235.682097279341 
C          -1.39984500      0.28076700      0.07786200
C          -2.90796500      0.51491000      0.20282700
C          -3.76201600     -0.72600300     -0.04317000
C          -3.33802200      1.69920600     -0.68408500
C          -3.25309800     -1.92060100     -0.37895600
C          -5.25252100     -0.55836900      0.14428800
H          -1.04794700     -0.51750800      0.74844100
H          -0.84851400      1.19959200      0.33537500
H          -1.12298700      0.00366500     -0.95381300
H          -3.11229500      0.81577200      1.25178100
H          -4.38776700      1.98549400     -0.51725200
H          -3.21787000      1.45473500     -1.75463500
H          -2.71581100      2.58293800     -0.46765100
H          -2.18520400     -2.09028100     -0.52865600
H          -3.90792200     -2.78487100     -0.52324100
H          -5.69175400      0.11635300     -0.60991800
H          -5.77237000     -1.52484700      0.06972000
H          -5.48779100     -0.11325100      1.12868300
