17
b3lypvdz=-197.620696587197 
C          -1.43079700      0.20687100     -0.19291000
C          -0.85557100     -1.07532400      0.41637000
C           0.61389600     -1.30587500      0.05818000
C          -2.88819700      0.48109300      0.19197700
C          -3.43440300      1.77485500     -0.41621900
H          -0.80530700      1.06635700      0.11961500
H          -1.34476900      0.16506100     -1.29656800
H          -1.46059700     -1.94117900      0.08663800
H          -0.96886300     -1.03599900      1.51651800
H           1.24533000     -0.46206900      0.38701200
H           1.01396300     -2.21632700      0.53299500
H           0.74885700     -1.40751800     -1.03274500
H          -3.51880500     -0.37292000     -0.11956900
H          -2.96913000      0.52361800      1.29496200
H          -4.45282800      1.99764900     -0.05897200
H          -3.47042600      1.71740600     -1.51820000
H          -2.79505200      2.63610000     -0.15508600
