18
b3lypvdz=-235.684819502191 
C          -2.99707500      0.54394900      0.36209600
C          -1.73490100     -2.27289300     -0.23141800
C          -3.76904900     -0.71475100      0.01616100
C          -3.31416200      1.76438800     -0.51568200
C          -3.19448000     -1.90953400     -0.21908700
C          -5.27431600     -0.57982200     -0.01254700
H          -1.91554900      0.34461700      0.31543700
H          -3.21701500      0.81056200      1.41570000
H          -1.07182300     -1.43222200      0.01953300
H          -1.52543700     -3.08587100      0.48658100
H          -1.42850500     -2.65743300     -1.22220100
H          -4.36095700      2.09164200     -0.40569700
H          -3.13892000      1.54776200     -1.58386300
H          -2.67318400      2.61570900     -0.23425700
H          -3.87211800     -2.74709800     -0.43304700
H          -5.61135300      0.13886400     -0.77963000
H          -5.76050700     -1.54489400     -0.22232800
H          -5.66444600     -0.19857500      0.95044800
