19
b3lypvdz=-310.868926993849 
O          -7.07365600      0.68423100     -1.00468700
C          -2.94032700      0.49167600      0.53128700
C          -1.73257900     -2.30004900     -0.24070000
C          -3.72425900     -0.69537400      0.01691600
C          -3.17650900     -1.87921200     -0.31318500
C          -5.22242100     -0.49168000     -0.09135200
C          -5.64843900      0.67074700     -0.98424900
H          -7.35183000      1.41024600     -1.58013400
H          -1.91388300      0.23131300      0.82539900
H          -2.87538200      1.29127200     -0.22887600
H          -3.44039700      0.93811000      1.40937500
H          -1.05862300     -1.49587500      0.08951500
H          -1.60409500     -3.15098900      0.45371500
H          -1.37525700     -2.65396600     -1.22547600
H          -3.85967600     -2.65868100     -0.67536200
H          -5.70342000     -1.40732000     -0.47317200
H          -5.64656300     -0.30220300      0.91470100
H          -5.24536200      1.62540400     -0.58754600
H          -5.22692100      0.52885100     -2.00207100
