13
b3lypvdz=-232.292820162441 
O          -7.06299100      0.76353200     -0.92787400
C          -3.78616600     -0.75584900      0.03435100
C          -3.19589300     -1.92553200     -0.22873700
C          -5.26750800     -0.50337400     -0.02021700
C          -5.64737500      0.62187300     -0.97653900
H          -7.30874000      1.47208400     -1.53892600
H          -3.15938500      0.10186800      0.31692100
H          -2.11077200     -2.04734100     -0.16310900
H          -3.77982400     -2.80736000     -0.51285900
H          -5.80081500     -1.42097000     -0.32183100
H          -5.64262500     -0.22706100      0.98428400
H          -5.13463600      1.55892900     -0.66860400
H          -5.29586900      0.37230100     -1.99926000
