16
b3lypvdz=-271.583285870974 
O          -7.01795500      0.69562200     -0.90731400
C          -3.74616900     -0.82162100      0.07560400
C          -3.21315800     -1.99512600     -0.27890000
C          -5.21245100     -0.49246600      0.02530400
C          -4.99005000      2.00169500     -0.55403300
C          -5.58947000      0.64682500     -0.93377300
H          -7.29652700      1.39668900     -1.51437800
H          -3.07734400     -0.03145700      0.44169300
H          -2.13765300     -2.18154300     -0.21268800
H          -3.83718900     -2.81867300     -0.64126600
H          -5.78324200     -1.38407300     -0.28191000
H          -5.57512100     -0.20652600      1.03132500
H          -3.88905200      1.99661000     -0.61585200
H          -5.28815000      2.28160700      0.47053600
H          -5.34972000      2.78696100     -1.24081600
H          -5.23005100      0.36977500     -1.94763400
