9
b3lypvdz=-171.93535101647 
N           5.51312300      1.89472400      0.34317900
C           2.94435800     -0.70476700      0.03919800
C           4.08979100     -0.04740800     -0.19497200
C           4.45866400      1.19042900      0.50830200
H           6.10904800      1.46288000     -0.38249800
H           2.22558200     -0.34540300      0.78269900
H           2.68825200     -1.62268000     -0.49549800
H           4.80444100     -0.42085700     -0.94021900
H           3.73044100      1.54318400      1.26061000
