16
b3lypvdz=-271.583314772956 
O          -7.05868700      0.79079700     -0.91517900
C          -1.74222800     -2.24014200     -0.15789800
C          -3.79425000     -0.77532900      0.02882600
C          -3.21763800     -1.95727900     -0.21973000
C          -5.27363400     -0.50319800     -0.02001400
C          -5.64702800      0.61581100     -0.98608200
H          -7.29841700      1.50154700     -1.52601200
H          -1.16764700     -1.34658800      0.13565400
H          -1.51798900     -3.04144800      0.56882500
H          -1.35841800     -2.59076000     -1.13385700
H          -3.15282200      0.07610800      0.30042900
H          -3.86081600     -2.80575700     -0.49240600
H          -5.82403200     -1.41560100     -0.30696400
H          -5.64074200     -0.20954900      0.98269600
H          -5.10969800      1.54619900     -0.70065000
H          -5.31965500      0.34519000     -2.01153800
