12
b3lypvdz=-157.109312962374 
C           3.00288500     -2.13330300     -0.31813400
C           1.55521600     -0.27731600      0.60678500
C           2.85896600     -0.97739000      0.33667700
C           1.33662100      0.02603100      2.09653600
H           2.13837100     -2.67184600     -0.72086300
H           3.98389800     -2.58537800     -0.48776800
H           0.72189600     -0.88235000      0.20975200
H           1.53998900      0.67846100      0.04935900
H           3.75573600     -0.47261400      0.72386200
H           1.26657100     -0.90242100      2.68623800
H           2.17253200      0.61743600      2.50877000
H           0.41361800      0.60728900      2.25378600
