16
b3lypvdz=-234.481846114808 
C           0.55973700     -1.34901600      0.12391300
C           1.56952800     -0.25650500      0.58421700
C           1.38327500     -2.65085300     -0.04890700
C           2.90053900     -0.85104400      0.17208700
C           1.52167400      0.05396600      2.09202200
C           2.80347500     -2.14472800     -0.15726400
H          -0.28699300     -1.46305400      0.81828700
H           0.13964300     -1.05660400     -0.85229200
H           1.37370200      0.69161100      0.04989600
H           1.06049800     -3.24750800     -0.91949700
H           1.28592400     -3.32746200      0.82317800
H           3.83217200     -0.27955100      0.20903400
H           1.70719600     -0.85510300      2.68951300
H           2.28835100      0.79446900      2.37437600
H           0.53968200      0.46377700      2.38199800
H           3.64249900     -2.78699600     -0.43636200
