23
b3lypvdz=-276.184781886621 
C          -1.38555300      0.24463600     -0.25182100
C          -0.87541400     -1.09134800      0.35950500
C           0.61144800     -1.35312500      0.06985700
C          -2.87121200      0.48873900      0.11490800
C          -0.50088600      1.43559800      0.14756800
C          -1.69402600     -2.30937800     -0.09814800
C          -3.44564800      1.85441400     -0.27469900
H          -1.32221200      0.14486100     -1.35529700
H          -0.99376100     -1.00340000      1.45826700
H           1.27173300     -0.59756600      0.51952700
H           0.91693700     -2.33222400      0.47406400
H           0.80816600     -1.36689700     -1.01713000
H          -3.48746100     -0.29288600     -0.35848000
H          -2.99255900      0.34739600      1.20621800
H           0.54191800      1.30185000     -0.17531500
H          -0.49912200      1.58359800      1.24256000
H          -0.85621200      2.36863600     -0.31377800
H          -2.74840400     -2.25975800      0.21274600
H          -1.27312600     -3.23355400      0.33014100
H          -1.67040000     -2.41392200     -1.19793900
H          -4.52570100      1.89788200     -0.05593800
H          -3.31483700      2.06222800     -1.35098200
H          -2.97156900      2.67832000      0.28096400
