12
b3lypvdz=-157.1094228956 
C           1.67669700     -0.47824400      0.67287800
C           3.95682800      0.06011500     -0.27832900
C           0.51855700     -1.11632800     -0.10355300
C           3.03277200     -0.81898600      0.11892600
H           1.55732400      0.61969300      0.69684600
H           1.62796800     -0.81803500      1.72567600
H           4.92511500     -0.26482000     -0.66748100
H           3.78209800      1.14058800     -0.22312700
H          -0.45141400     -0.83838000      0.33995300
H           0.58497800     -2.21816800     -0.09646900
H           0.51650700     -0.78832300     -1.15629700
H           3.25666900     -1.89291100      0.04297500
