14
b3lypvdz=-158.335242547589 
C           1.00057100      1.23861200      0.04323800
C           1.30516400     -2.67600700      0.22931100
C           0.70251500     -1.30438200     -0.07954300
C           1.56163800     -0.13545900      0.41382400
H          -0.03398400      1.36070100      0.40954900
H           0.98265400      1.38207100     -1.05133400
H           1.60278100      2.05316300      0.47647600
H           2.28562100     -2.80157300     -0.26231300
H           0.65382100     -3.49466700     -0.11753300
H           1.46220900     -2.80959000      1.31397600
H          -0.30221200     -1.23313100      0.37803100
H           0.54514400     -1.20668600     -1.17032600
H           2.58417300     -0.23804700      0.00389100
H           1.66660700     -0.20630500      1.51305200
