12
b3lypvdz=-157.108890126045 
C          -3.78504400     -0.73584600      0.06129000
C          -1.75623500     -2.25467500     -0.10569800
C          -0.85111100     -1.12557400      0.38639100
C          -3.21686100     -1.90733400     -0.24305600
H          -3.20938700      0.10474900      0.45724700
H          -4.85747900     -0.57309600     -0.07541900
H          -1.66463100     -3.13019000      0.56621500
H          -1.39223300     -2.62514600     -1.08434700
H          -0.86688300     -0.26480200     -0.30277600
H           0.19167900     -1.47186200      0.47087700
H          -1.16648300     -0.75999900      1.37809800
H          -3.85123000     -2.71352500     -0.63432000
