14
b3lypvdz=-158.335276516575 
C           1.29933700     -2.57139300      0.21819000
C          -1.43804300      0.23186700     -0.01079000
C          -0.80107100     -1.11921300      0.32299200
C           0.66428400     -1.21929600     -0.11541600
H           2.34556300     -2.62717300     -0.12492200
H           0.74870300     -3.40011200     -0.25872100
H           1.29164700     -2.75487500      1.30715100
H          -2.47927000      0.29164400      0.34639600
H          -0.87989900      1.06236300      0.45428600
H          -1.44491800      0.40959000     -1.10066500
H          -1.37896500     -1.93303700     -0.15352800
H          -0.86785900     -1.30324500      1.41279800
H           1.24255600     -0.40763700      0.36443000
H           0.73303500     -1.03218400     -1.20450000
