15
b3lypvdz=-196.395179013184 
C          -2.93670500      0.50758000      0.37202500
C          -3.72933400     -0.74108000      0.07378800
C          -3.37396500      1.67773900     -0.52710600
C          -3.21732100     -1.92254100     -0.28134200
C          -3.05529400      0.88706600      1.86108600
H          -1.87433800      0.28638400      0.15555800
H          -4.82102800     -0.64432900      0.17906400
H          -4.43805200      1.92744300     -0.35984500
H          -3.24738700      1.43367200     -1.59544700
H          -2.78231900      2.58316700     -0.31044200
H          -2.13705400     -2.06294800     -0.40540000
H          -3.85422200     -2.79135900     -0.46894700
H          -2.69240700      0.07559600      2.51196900
H          -2.46673700      1.79367200      2.08387000
H          -4.10584000      1.09463600      2.13446800
