19
b3lypvdz=-310.865896316641 
O          -7.17106900      0.68245700     -0.72387100
C          -1.28598200      0.21272100      0.19089600
C          -2.78684900      0.50275900      0.17173500
C          -3.70745900     -0.66688000     -0.12618400
C          -3.25982500     -1.88319900     -0.47094400
C          -5.19295900     -0.40251400      0.01672400
C          -5.78030900      0.56839200     -1.00793600
H          -7.55456200      1.29662900     -1.36552000
H          -1.03797200     -0.57258200      0.92304800
H          -0.71961200      1.11660300      0.46666500
H          -0.91798100     -0.12278600     -0.79258100
H          -2.99210100      1.30932100     -0.55746300
H          -3.09152200      0.92990500      1.14674400
H          -2.19641700     -2.11258600     -0.56848000
H          -3.95673200     -2.70264500     -0.66594300
H          -5.75146400     -1.34818800     -0.06639400
H          -5.40582000      0.01358700      1.01927600
H          -5.27889900      1.55446600     -0.93773300
H          -5.60196500      0.17764100     -2.03134000
