17
b3lypvdz=-197.619785497618 
C          -1.45178200      0.21720000      0.01515900
C          -0.77199600     -1.12151900      0.31750300
C           0.70343400     -1.22044900     -0.11899000
C           1.58122000     -0.11236500      0.48021700
C           1.25455000     -2.61237000      0.21687300
H          -2.52454800      0.18430000      0.26815700
H          -1.00676100      1.04380400      0.59158800
H          -1.36721900      0.47591800     -1.05545600
H          -1.33231100     -1.93326000     -0.18095900
H          -0.83953900     -1.33235200      1.40324900
H           0.73326000     -1.10104200     -1.22096400
H           1.25277400      0.88822800      0.15681200
H           2.63182500     -0.22777400      0.16410200
H           1.55896200     -0.13224300      1.58527900
H           2.29890800     -2.72807800     -0.11860700
H           0.65839800     -3.40592200     -0.26300200
H           1.22872400     -2.78947500      1.30723900
