13
b3lypvdz=-195.175300399369 
C           1.60692000     -0.10389000      0.51042200
C           2.81760600     -0.88670200      0.05420200
C           2.78570600     -2.22419800     -0.07821200
C           4.03711200     -0.08746700     -0.20815100
C           4.97452100     -0.34548900     -1.13170600
H           0.73850900     -0.76002200      0.67010000
H           1.32928100      0.66891600     -0.22698500
H           1.81539000      0.42672100      1.45773700
H           1.86747300     -2.78893700      0.10546600
H           3.67505300     -2.79546100     -0.35654700
H           4.14920800      0.81686600      0.40444800
H           5.84623300      0.30425500     -1.24436300
H           4.89808700     -1.20089400     -1.80961100
