14
b3lypvdz=-158.335267757315 
C          -1.38729100      0.26321700      0.00894400
C          -4.91598400      1.93277800     -0.44872100
C          -3.41443600      1.69602200     -0.62004800
C          -2.88664600      0.50808500      0.18963400
H          -1.03222100     -0.57611200      0.62814000
H          -0.79708800      1.15250900      0.29278300
H          -1.14393300      0.03013500     -1.04250400
H          -5.50062600      1.04806600     -0.75741200
H          -5.17117400      2.14275900      0.60469100
H          -5.26789000      2.78417000     -1.05323300
H          -3.18220500      1.53519600     -1.69022700
H          -2.86095500      2.60832900     -0.32507200
H          -3.45007300     -0.40137100     -0.09487200
H          -3.10687700      0.67571600      1.26149700
