23
b3lypvdz=-276.188214805119 
C          -1.44506800      0.15864700     -0.13210100
C          -0.89636400     -1.10217400      0.55348700
C          -2.96059500      0.35621300     -0.02129600
C          -1.36476100     -2.43186100     -0.04573400
C          -3.44063500      1.65674900     -0.67854700
C          -4.91700700      2.00315400     -0.43425300
C          -5.91541100      0.92217200     -0.86006900
H          -0.94055200      1.03856400      0.30784100
H          -1.15683100      0.15494000     -1.20130000
H           0.20744900     -1.06506100      0.51456500
H          -1.16516400     -1.07368800      1.62660000
H          -3.48547400     -0.50182400     -0.47613800
H          -3.24928100      0.35439300      1.04853200
H          -2.45526500     -2.57000000      0.04927300
H          -0.88116400     -3.28271900      0.46100700
H          -1.11288500     -2.49976600     -1.11901500
H          -3.25068600      1.60161700     -1.76789000
H          -2.81866100      2.49414100     -0.31031900
H          -5.06358600      2.22727800      0.63885600
H          -5.15022600      2.93901100     -0.97243400
H          -6.95257200      1.28119900     -0.75101700
H          -5.81863600      0.00674300     -0.25405200
H          -5.77192500      0.63087100     -1.91609500
