23
b3lypvdz=-276.189593280743 
C          -1.48400300      0.20396100     -0.13306300
C          -0.89664700     -1.12063900      0.39153200
C           0.57515900     -1.23525700     -0.03594600
C          -2.92376200      0.57272400      0.27380200
C          -1.69208200     -2.35710900     -0.05222300
C          -3.36579200      1.84211200     -0.46894900
C          -3.07156500      0.75401500      1.79208400
H          -0.82015400      1.02584200      0.20162000
H          -1.41903800      0.20019200     -1.23916000
H          -0.91988100     -1.09288800      1.49820700
H           1.17220000     -0.38838000      0.34168500
H           1.03471300     -2.16289800      0.34481100
H           0.66674100     -1.24091600     -1.13787100
H          -3.59979200     -0.24698300     -0.03964000
H          -2.71671300     -2.36252900      0.35483500
H          -1.19932600     -3.28097700      0.29650800
H          -1.76617100     -2.41393900     -1.15386400
H          -4.39661100      2.12865500     -0.20003600
H          -3.32656300      1.70273200     -1.56293800
H          -2.70803800      2.69349500     -0.21697800
H          -2.85153500     -0.17071800      2.35048200
H          -2.38263900      1.53603000      2.15981000
H          -4.09540000      1.06587600      2.06029100
