23
b3lypvdz=-276.187072035466 
C          -1.39834300      0.30126300     -0.02510200
C           1.62041900     -0.19271000      0.55321500
C          -2.88054100      0.58697000      0.31006500
C          -0.40185300      1.41589900      0.32718200
C           1.06173100      1.10650700     -0.04282600
C          -3.46134000      1.74665300     -0.51513200
C          -3.11006200      0.80556200      1.81338800
H          -1.10722700     -0.62412200      0.50266000
H          -1.31990200      0.07558800     -1.10587100
H           1.12940700     -1.08221500      0.12664600
H           2.70003700     -0.28541800      0.34565800
H           1.48467200     -0.22547300      1.64958000
H          -3.44074200     -0.32439000      0.02577500
H          -0.45169100      1.62964700      1.41084300
H          -0.69485300      2.34852500     -0.18612700
H           1.16077900      1.07222100     -1.14485500
H           1.68906100      1.95241300      0.29229700
H          -4.54561900      1.85346400     -0.33932600
H          -3.31281000      1.58171500     -1.59685800
H          -2.99066600      2.70915300     -0.25109700
H          -2.65434900     -0.00195500      2.41155300
H          -2.68028100      1.76140700      2.15876700
H          -4.18802900      0.82739800      2.04676400
