18
b3lypvdz=-235.677837014299 
C          -1.40561400      0.32350800      0.10151100
C          -2.92211300      0.47589100      0.24367500
C          -3.68767600     -0.81146200      0.03584700
C          -3.44009600      1.61516500     -0.66767400
C          -3.19348500     -1.99519200     -0.34242900
C          -4.90493700      2.00781400     -0.46420800
H          -1.00640300     -0.45296700      0.77151400
H          -0.89607000      1.27030200      0.34154000
H          -1.12686900      0.04930800     -0.93082600
H          -3.13661900      0.79403000      1.28633200
H          -4.76436600     -0.74189100      0.23340900
H          -3.27045300      1.32684300     -1.72223600
H          -2.80420600      2.50063800     -0.48463800
H          -2.13218600     -2.15237300     -0.55368200
H          -3.84724800     -2.86367900     -0.46064900
H          -5.60054900      1.19658400     -0.73403800
H          -5.10501600      2.28177100      0.58655200
H          -5.16849400      2.87721100     -1.08790000
