19
b3lypvdz=-310.873655623351 
O          -7.04100400      0.70677500     -0.87328100
C          -1.73348500     -2.32853500     -0.16148500
C          -3.73311800     -0.79278200      0.04785800
C          -3.19628900     -1.98629500     -0.23615000
C          -5.20537300     -0.47864600      0.00355600
C          -5.00672900      2.01668400     -0.57760200
C          -5.61072100      0.65919800     -0.94172400
H          -7.33627900      1.40012600     -1.48103100
H          -1.12787900     -1.46652600      0.16220600
H          -1.55145200     -3.15544300      0.54855900
H          -1.34906000     -2.67084800     -1.14008800
H          -3.06188900      0.01718300      0.36535300
H          -3.86581000     -2.80073300     -0.54642600
H          -5.76946400     -1.37695900     -0.29759300
H          -5.56554400     -0.20442600      1.01494400
H          -3.90858800      2.02284800     -0.67991600
H          -5.26940300      2.28895900      0.45920000
H          -5.40161400      2.80322600     -1.24379500
H          -5.28579700      0.38609400     -1.96868400
