20
b3lypvdz=-236.904821778192 
C          -1.36477100      0.30557300     -0.11858500
C          -0.72259700     -1.02134200      0.33412800
C           0.73339900     -1.24752500     -0.09886400
C          -2.81332300      0.39228700      0.38608000
C          -0.56651700      1.55281700      0.28751800
C           1.22092500     -2.66791100      0.21678400
H          -1.39886900      0.28689500     -1.22703000
H          -1.33940500     -1.84883900     -0.06476500
H          -0.78665900     -1.10113800      1.43858100
H           1.39378200     -0.51859300      0.40306700
H           0.83128000     -1.06153300     -1.18538900
H          -3.40576300     -0.47664400      0.05307800
H          -3.31312100      1.30133200      0.01120100
H          -2.85001700      0.41950800      1.49088900
H           0.42497000      1.58015900     -0.19158000
H          -0.41737800      1.60194500      1.38161900
H          -1.10086700      2.46893400     -0.01804000
H           2.27094400     -2.81033000     -0.09009100
H           0.61387000     -3.42287000     -0.31083100
H           1.15181900     -2.88072600      1.29823100
