23
b3lypvdz=-276.185435257926 
C          -1.35636100      0.26033200     -0.08260900
C          -0.89777800     -1.11566900      0.44347000
C          -2.81549700      0.62189200      0.28803600
C          -0.39016400      1.38976300      0.33863000
C           1.05486000      1.24547200     -0.14963200
C          -1.76324600     -2.30384600      0.01789700
C          -3.13285900      0.71045300      1.78498400
H          -1.32501700      0.20577200     -1.18970400
H           0.13035000     -1.29333300      0.08564700
H          -0.82980500     -1.08669700      1.54702600
H          -3.50006900     -0.10694300     -0.17919000
H          -3.05369900      1.59116000     -0.18644900
H          -0.39084300      1.48084800      1.44030500
H          -0.79989500      2.34273200     -0.04275400
H           1.56410200      0.37912300      0.30099700
H           1.10210800      1.12340800     -1.24627100
H           1.64874000      2.13714300      0.11080600
H          -2.77512500     -2.26198600      0.45114900
H          -1.30934300     -3.25395400      0.34449800
H          -1.87400400     -2.35022100     -1.07954900
H          -2.98892100     -0.25561800      2.29743400
H          -2.50353100      1.45155400      2.30340800
H          -4.18210100      1.01001500      1.94257100
