20
b3lypvdz=-236.903099804783 
C          -1.44851500      0.27719000     -0.04791200
C          -0.89306300     -1.08925200      0.40221800
C           0.58670100     -1.27729400      0.00254600
C           1.56499700     -0.21673600      0.52422500
C          -2.92075200      0.53195800      0.30994000
C          -1.72082000     -2.26718500     -0.13753200
H          -0.84220400      1.07668500      0.41138400
H          -1.31443500      0.37857400     -1.14283100
H          -0.94780400     -1.12226900      1.50982300
H           0.91500400     -2.26746300      0.36805300
H           0.65563300     -1.32162400     -1.10194000
H           1.39682000      0.76850400      0.06001300
H           2.60532600     -0.50793900      0.29980900
H           1.48089100     -0.09460600      1.61874300
H          -3.60367800     -0.13498800     -0.23971100
H          -3.20825200      1.56711000      0.05958300
H          -3.10144700      0.38548400      1.38973300
H          -2.75122300     -2.26320900      0.25180400
H          -1.26612300     -3.22874200      0.15570300
H          -1.77395400     -2.24370000     -1.24105200
