10
b3lypvdz=-155.885137496727 
C           6.31711700      0.22775200     -1.50236700
C           4.19003300      0.13340700     -0.14402400
C           5.14003800     -0.32703800     -1.17009200
C           4.29615100      1.21932900      0.63963000
H           6.70395000      1.12769200     -1.01534900
H           6.93945000     -0.21511700     -2.28396300
H           3.30226100     -0.49787900     -0.02314300
H           4.83394900     -1.23166600     -1.70833000
H           5.14645500      1.90554400      0.58416600
H           3.51739700      1.45887700      1.36767300
