21
b3lypvdz=-274.968826517675 
C          -0.82991200     -1.00240000      0.09325600
C           0.65502700     -1.36183000      0.17922500
C          -1.71600500     -2.19924500     -0.26260300
C          -3.82971300     -0.80565300      0.00451500
C          -3.20071700     -1.93952700     -0.32906900
C          -5.31630400     -0.57847100     -0.03111300
C          -5.71315600      0.68587500     -0.80582900
H          -0.98512600     -0.20614900     -0.65658600
H          -1.15873200     -0.57714700      1.05859700
H           1.26852200     -0.48939200      0.45730200
H           0.83578900     -2.14347000      0.93690500
H           1.03736200     -1.74728000     -0.78222000
H          -1.54137200     -3.01436200      0.46848000
H          -1.37823400     -2.62696000     -1.22740700
H          -3.24016900      0.05056700      0.35532900
H          -3.80997100     -2.78835900     -0.66938400
H          -5.82291300     -1.46416500     -0.45343900
H          -5.68833200     -0.47592300      1.00713200
H          -6.80140900      0.85666400     -0.76183300
H          -5.22008100      1.57706800     -0.38071700
H          -5.41565400      0.61875800     -1.86584200
