20
b3lypvdz=-236.902035204122 
C          -1.44351200      0.20894300      0.04359200
C          -0.78335900     -1.14868200      0.31184100
C           0.70087000     -1.23840800     -0.09480400
C           1.58970000     -0.13853000      0.53075400
C           1.23886800     -2.65099500      0.18056300
C           1.57302000     -0.03920700      2.06093800
H          -2.52109700      0.17918600      0.27698900
H          -1.00030300      1.01127900      0.65497500
H          -1.33641400      0.50260000     -1.01580700
H          -1.33430200     -1.93346200     -0.23728200
H          -0.89103600     -1.40530200      1.38286900
H           0.74958700     -1.07847300     -1.19033400
H           1.29793200      0.83942300      0.10810100
H           2.62846100     -0.30802900      0.19192000
H           2.29378200     -2.74616100     -0.12930800
H           0.65910100     -3.40765300     -0.37307100
H           1.17578200     -2.91059000      1.25173400
H           1.86270200     -0.98839400      2.54171200
H           2.28162700      0.73123900      2.40608900
H           0.57789200      0.23901400      2.44572700
