18
b3lypvdz=-289.794927461321 
N           5.79177000      0.96679500      1.29611600
C           0.88309400     -1.22562300      0.50302700
C           1.56841500      0.12044700      0.19156700
C           0.60881500      1.05733700     -0.56524400
C           2.81817000     -0.11283400     -0.61922700
C           4.09773800      0.15619600     -0.29388900
C           4.57272400      0.76687900      0.95418700
H           6.42015100      0.62756100      0.54895300
H          -0.03272700     -1.06939800      1.09656000
H           1.55045500     -1.89266800      1.07135100
H           0.59411200     -1.74504400     -0.42747100
H           1.83230700      0.60083000      1.14786800
H          -0.30125300      1.24297400      0.02844500
H           0.29465500      0.61238200     -1.52561000
H           1.08204700      2.02862500     -0.78088800
H           2.63278500     -0.58032600     -1.59642800
H           4.88491300     -0.10494800     -1.01235900
H           3.80372900      1.08871500      1.67404200
