6
b3lypvdz=-78.53313428418 
C          -3.74396900     -0.72183100      0.01124100
C          -3.21653000     -1.93046900     -0.19524200
H          -3.11459200      0.14497700      0.23607000
H          -4.82528100     -0.55518300     -0.03622300
H          -2.13521900     -2.09711700     -0.14777700
H          -3.84590900     -2.79727600     -0.42007000
