16
b3lypvdz=-234.482623740342 
C           0.50530000     -1.33530400      0.07068600
C           1.44369400     -0.18137600      0.51485400
C           1.13523600      1.18293000     -0.10794800
C           1.38271000     -2.61102000      0.08237700
C           2.81563200     -0.73688000      0.17311800
C           2.78282400     -2.05298300     -0.06844400
H          -0.39703000     -1.42295100      0.69440200
H           0.17290200     -1.13555100     -0.96404500
H           1.38065700     -0.07105600      1.61848100
H           0.10544200      1.50229100      0.12578800
H           1.24067100      1.15117600     -1.20697900
H           1.81797400      1.95989300      0.27352100
H           1.10719300     -3.33629000     -0.70169000
H           1.29422300     -3.15307800      1.04508800
H           3.71600300     -0.11604100      0.16087100
H           3.65216800     -2.67275900     -0.30138100
