21
b3lypvdz=-274.960578932737 
C          -1.36273400      0.26347100      0.03153700
C          -2.87164200      0.47940000      0.24109800
C          -0.47340600      1.47598900      0.31327300
C          -3.68011000     -0.78729100      0.07359900
C          -3.41848200      1.64279400     -0.62052600
C          -3.24796000     -1.98432100     -0.33870800
C          -4.90536400      1.96064300     -0.44164500
H          -1.04153000     -0.56766300      0.68167800
H          -1.19322300     -0.07858400     -1.00672800
H          -3.01917400      0.78912700      1.30023500
H           0.59043000      1.19375400      0.24715500
H          -0.64803300      1.87912700      1.32711400
H          -0.63612300      2.29906800     -0.40028100
H          -4.73914000     -0.69265000      0.34171000
H          -3.20922000      1.42184800     -1.68467200
H          -2.83815300      2.54727300     -0.37331500
H          -2.21051600     -2.17713900     -0.62388300
H          -3.93647500     -2.83096500     -0.40981000
H          -5.55754600      1.15169700     -0.80737100
H          -5.15658000      2.13752400      0.61918000
H          -5.17782000      2.87129800     -0.99944000
