17
b3lypvdz=-197.619975330245 
C          -0.81275200     -1.23006100      0.43628800
C           0.62489500     -1.26903700     -0.10546900
C           1.49719500     -0.11753200      0.43388700
C           1.08028900      1.28800600     -0.01862600
C           1.26636400     -2.62885300      0.20421100
H          -1.33183400     -0.29347300      0.17434500
H          -1.41055900     -2.06085800      0.02535300
H          -0.82550500     -1.32719700      1.53779900
H           0.57980100     -1.15850500     -1.20736000
H           2.54155100     -0.29404000      0.11512000
H           1.50481200     -0.16063600      1.54073700
H           0.07054900      1.55539000      0.33520600
H           1.08325500      1.37003200     -1.12027600
H           1.77419500      2.05018400      0.37210300
H           2.28122800     -2.69898500     -0.22241300
H           0.66897000     -3.45751500     -0.21152500
H           1.34694600     -2.79022000      1.29432000
