18
b3lypvdz=-289.789004314111 
N           5.58008200      1.78720700      0.52124400
C           1.55019400     -0.19313400      0.54852800
C           0.98045400      1.11582500     -0.03580100
C           2.84125300     -0.62228800     -0.13433700
C           1.66926200     -0.12304600      2.08393400
C           4.04732900     -0.01756200     -0.13882600
C           4.42416200      1.23514500      0.53012600
H           6.23293400      1.21208600     -0.03714100
H           0.81206300     -0.98307000      0.32291500
H           0.00768500      1.34980900      0.42817100
H           0.82780200      1.03544900     -1.12398600
H           1.65395600      1.96835000      0.14631400
H           2.77318200     -1.55490100     -0.70602800
H           2.03161000     -1.07577900      2.50354100
H           2.36530300      0.66521000      2.40937200
H           0.68651400      0.09953500      2.53263400
H           4.85926000     -0.49948300     -0.69967800
H           3.64085500      1.76034600      1.09552000
