17
b3lypvdz=-197.619876056885 
C          -1.43013300      0.25181500     -0.05356900
C          -0.90061100     -1.12627000      0.38764800
C           0.57484400     -1.27552700     -0.01773400
C          -2.88346800      0.55367700      0.33754500
C          -1.73263100     -2.29804800     -0.15632600
H          -0.77606900      1.02816100      0.38434100
H          -1.31885600      0.34356000     -1.15183400
H          -0.95433900     -1.16607500      1.49411000
H           1.19542600     -0.47437400      0.41738900
H           0.98857300     -2.23964500      0.32369200
H           0.68871600     -1.22870200     -1.11609200
H          -3.59555200     -0.10582600     -0.18345700
H          -3.15109200      1.59131600      0.07617400
H          -3.04003400      0.42976000      1.42392900
H          -2.76651600     -2.28225000      0.22525600
H          -1.28999800     -3.26251000      0.14588600
H          -1.77746100     -2.27986200     -1.26045800
