23
b3lypvdz=-276.186791912492 
C          -1.35690700      0.34149500     -0.11565400
C          -0.73572200     -0.99515900      0.34272400
C           0.71789000     -1.24008400     -0.08809100
C          -2.81937600      0.47341400      0.36970200
C          -0.51874700      1.57599900      0.25491700
C           1.18696400     -2.66466000      0.23581500
C          -3.00546700      0.68087600      1.88014700
H          -1.39816300      0.30544800     -1.22243100
H          -1.36355000     -1.81385200     -0.05752400
H          -0.79285800     -1.07975900      1.44554800
H           1.38483200     -0.51715900      0.41364100
H           0.82140100     -1.05936800     -1.17495700
H          -3.37872800     -0.42847500      0.05860900
H          -3.29041200      1.31925100     -0.16382700
H           0.43806500      1.59307900     -0.28986900
H          -0.28949100      1.61441500      1.33353500
H          -1.05820200      2.50289300     -0.00744000
H           2.23802400     -2.81934600     -0.06116200
H           0.57624000     -3.41450600     -0.29470900
H           1.10589000     -2.87321300      1.31734500
H          -2.57821700     -0.14733100      2.46927500
H          -2.53349700      1.61471800      2.22708600
H          -4.07717000      0.74202300      2.13222200
