20
b3lypvdz=-236.902067389679 
C          -0.83241700     -1.21929500      0.42278300
C           0.64019800     -1.27675700     -0.03233400
C           1.46751300     -0.11102200      0.55780200
C          -1.75663000     -2.24972500     -0.23248700
C           1.28156600     -2.64749300      0.23359000
C           1.63680600     -0.08693500      2.08228200
H          -1.21795200     -0.20511700      0.20614500
H          -0.88345400     -1.33732300      1.52140200
H           0.64528300     -1.12363200     -1.12960600
H           1.00591300      0.83961300      0.23282300
H           2.46893200     -0.13210300      0.09030700
H          -2.80325800     -2.09351400      0.07710600
H          -1.48519100     -3.28209700      0.04504500
H          -1.72044700     -2.18219600     -1.33462000
H           2.34788900     -2.64511900     -0.05139300
H           0.79079200     -3.44231800     -0.34902900
H           1.21762800     -2.93324600      1.29794100
H           2.07192100     -1.02463200      2.46619600
H           2.31374400      0.72921300      2.38322100
H           0.68076500      0.07359700      2.60682500
