18
b3lypvdz=-235.677966554265 
C          -0.90201400     -1.09674900      0.44145200
C           0.55009100     -1.29368600     -0.00443900
C           1.56793200     -0.27407600      0.56830500
C           1.23836400      1.17665200      0.19927900
C           2.96150700     -0.70660600      0.16251800
C           3.81012200     -0.06015100     -0.64271300
H          -1.31019100     -0.13028800      0.10401500
H          -1.54911500     -1.88382000      0.02144900
H          -0.99804300     -1.13660600      1.54079900
H           0.87878200     -2.30744500      0.28914100
H           0.61101600     -1.26259400     -1.10837700
H           1.51760000     -0.36401300      1.67299500
H           0.26990900      1.48546600      0.62132300
H           1.18598200      1.31740400     -0.89397300
H           2.00173000      1.86705000      0.59165600
H           3.26704200     -1.68130100      0.56646900
H           4.78331700     -0.48996600     -0.89512900
H           3.57537100      0.91362800     -1.08107100
