20
b3lypvdz=-236.902750392272 
C          -1.34593600      0.25768100     -0.06750100
C          -0.76314100     -1.10508700      0.35628700
C           0.69107700     -1.29561100     -0.12432500
C          -0.57127400      1.50406300      0.36950400
C          -1.69138200     -2.23176700     -0.12138700
C           1.29489300     -2.67502400      0.16519300
H          -2.37449200      0.32053900      0.33201100
H          -1.45030300      0.26506600     -1.16991600
H          -0.75288900     -1.13313600      1.46595000
H           1.32419100     -0.52422000      0.34706600
H           0.73942700     -1.10079800     -1.21420000
H           0.41264000      1.57898800     -0.12127600
H          -0.39935300      1.51845600      1.46020700
H          -1.13376300      2.41646900      0.11010900
H          -2.73319600     -2.04126900      0.18641400
H          -1.40152000     -3.21077100      0.29000400
H          -1.67980900     -2.31649700     -1.22343800
H           2.36150200     -2.70639000     -0.11289900
H           0.78811700     -3.47325900     -0.39949100
H           1.22161100     -2.93193500      1.23698800
