23
b3lypvdz=-276.185542891305 
C          -1.36338900      0.26563600     -0.07449600
C          -0.91158600     -1.10128300      0.47397800
C          -2.84216100      0.56554400      0.30773700
C          -0.39571100      1.40687100      0.30584400
C           1.07636700      1.16150700     -0.05831800
C          -3.43583100      1.72852300     -0.50583300
C          -3.05772700      0.79771400      1.81336500
H          -1.34372200      0.18531400     -1.18032000
H           0.03712100     -1.42520000      0.01865000
H          -1.66077300     -1.87906200      0.24877100
H          -0.76555800     -1.08251900      1.56851900
H          -3.41841100     -0.33874000      0.03274800
H          -0.45930700      1.60436500      1.39115100
H          -0.72805800      2.33229600     -0.19532700
H           1.51651400      0.34221200      0.53234900
H           1.19240700      0.90763500     -1.12721200
H           1.67975200      2.06412900      0.13829600
H          -4.51586000      1.83559800     -0.30604600
H          -3.31222400      1.56416100     -1.59072700
H          -2.96029800      2.69076800     -0.25116300
H          -2.63685200     -0.01728400      2.42409100
H          -2.59768600      1.74200300      2.15044700
H          -4.13440700      0.85931300      2.04499600
