16
b3lypvdz=-234.467238746814 
C           1.62254200     -0.01888300      0.60243700
C           2.87248000     -0.55916500     -0.03107000
C           1.52159600     -0.35994000      2.10144800
C           3.92331400      0.17030000     -0.45101300
C           5.12231800     -0.41038400     -1.04304400
C           6.20421400      0.28045000     -1.44079000
H           0.74249400     -0.44176800      0.08303400
H           1.57522200      1.07542600      0.46488300
H           2.92911200     -1.65214200     -0.13558700
H           1.59747600     -1.44773200      2.27128200
H           2.33191700      0.12323700      2.67058900
H           0.56141000     -0.01888900      2.52314900
H           3.89694400      1.26369400     -0.34935800
H           5.11446200     -1.50162100     -1.16143800
H           6.25920500      1.36938000     -1.33925900
H           7.07129400     -0.22206400     -1.87476300
