18
b3lypvdz=-235.678798690592 
C          -1.59673300      0.45877700      0.07855100
C           1.42471800     -0.31087100      0.61786200
C          -0.41595500      1.43283400      0.12675400
C           0.93872800      0.83733800     -0.28208400
C           2.82053900     -0.76858900      0.29818900
C           3.17796900     -2.01385000     -0.02849900
H          -1.48299000     -0.37235900      0.79407600
H          -2.54125400      0.97401200      0.32019200
H          -1.70861300      0.00846500     -0.92367400
H           0.73473100     -1.16984000      0.54939600
H           1.39216100      0.03979500      1.66952600
H          -0.32997700      1.85221000      1.14694600
H          -0.63219800      2.29120700     -0.53380900
H           0.89744100      0.47720300     -1.32706500
H           1.69203700      1.64738600     -0.26116400
H           3.59600700      0.00963800      0.34293900
H           2.44132300     -2.82293300     -0.08866900
H           4.21576600     -2.27772200     -0.24846600
