18
b3lypvdz=-272.803374565326 
O          -7.16322000      0.89876500     -0.88224600
C          -1.31497600      0.32291100      0.04969000
C          -2.82590100      0.49335000      0.22049500
C          -3.40410400      1.61640900     -0.64787200
C          -4.91641400      1.83299300     -0.50595700
C          -5.76832100      0.64737700     -0.96610800
H          -7.34656300      1.69053400     -1.41007800
H          -0.91814600     -0.47525200      0.69666200
H          -0.77291600      1.25152800      0.30079900
H          -1.05979700      0.06457500     -0.99303200
H          -3.32809000     -0.46111500     -0.01937600
H          -3.05872700      0.70189200      1.28219400
H          -3.15953400      1.41385100     -1.70876700
H          -2.88846600      2.56116300     -0.39399300
H          -5.18068400      2.07597900      0.53916100
H          -5.20431800      2.71352900     -1.11232300
H          -5.59511100     -0.22929900     -0.32166300
H          -5.46861200      0.35180900     -1.99518600
