19
b3lypvdz=-273.745049486442 
C           1.56554400     -0.17844300      0.67204800
C          -0.27410600      1.54146300      0.24822200
C           0.87946000      0.73964700     -0.35772900
C           2.80015400     -0.87066000      0.12497000
C           2.76849300     -2.15539400     -0.27218800
C           4.02948800     -0.04886700      0.05906700
C           4.99068400     -0.11497500     -0.87417400
H           0.84001500     -0.92842300      1.03078000
H           1.85024700      0.42757000      1.55251300
H          -1.02886400      0.87695200      0.70434200
H           0.08801000      2.22133400      1.03904100
H          -0.78437700      2.15354400     -0.51391100
H           0.51111200      0.11804300     -1.19352500
H           1.62489500      1.42864500     -0.79465600
H           1.84455800     -2.73931500     -0.22507700
H           3.66161200     -2.66520100     -0.64264800
H           4.13490700      0.69773900      0.85841200
H           5.87490800      0.52499100     -0.81416500
H           4.92536000     -0.79965100     -1.72532100
