20
b3lypvdz=-236.905950961459 
C          -1.40927800      0.21730000     -0.21205500
C          -0.87102800     -1.08946300      0.38060200
C           0.63195500     -1.27090500      0.16647100
C          -2.90168900      0.44540800      0.04231700
C          -3.44895600      1.70741800     -0.63264200
C          -4.91903400      1.98366900     -0.31167300
H          -0.83413200      1.06725800      0.20332900
H          -1.21646700      0.23416200     -1.30250000
H          -1.41724400     -1.94243300     -0.06383000
H          -1.09851600     -1.12120300      1.46289200
H           1.20628500     -0.45134400      0.63119100
H           0.99701400     -2.21448900      0.60374900
H           0.88387700     -1.27779900     -0.90820900
H          -3.47630400     -0.43355800     -0.30883700
H          -3.08033300      0.50166300      1.13386900
H          -3.31774100      1.61438100     -1.72734100
H          -2.83463400      2.57707400     -0.33095400
H          -5.56026200      1.12737800     -0.58511900
H          -5.06354300      2.16973300      0.76672800
H          -5.29696800      2.86334900     -0.85728700
