23
b3lypvdz=-276.188089328733 
C          -1.27990600      0.29538700     -0.19520400
C          -2.79195400      0.47084400      0.01195700
C          -0.41689400      1.48275800      0.25591900
C           1.08064700      1.16607200      0.25375700
C          -3.42172600      1.63846600     -0.75636900
C          -4.91192400      1.86829300     -0.45810700
C          -5.83314600      0.68954900     -0.78403900
H          -0.95416400     -0.60392800      0.35878700
H          -1.07515400      0.08043600     -1.26207200
H          -3.29480100     -0.46840000     -0.27817100
H          -2.99389000      0.60363300      1.09331500
H          -0.72594000      1.79095900      1.27304000
H          -0.60803200      2.35392100     -0.39453400
H           1.31133000      0.32813300      0.93394200
H           1.43068000      0.87451000     -0.75197400
H           1.68213000      2.03038800      0.58010700
H          -3.28090800      1.47602500     -1.84319000
H          -2.87977800      2.56966300     -0.51432700
H          -5.02672600      2.13608900      0.60922200
H          -5.25075100      2.75165100     -1.02799600
H          -6.89082100      0.96341900     -0.63228600
H          -5.62851900     -0.18739300     -0.14899100
H          -5.71865200      0.36862500     -1.83518400
