15
b3lypvdz=-196.399025320534 
C          -1.37017800      0.29143900      0.02634200
C          -2.88049300      0.46491400      0.16928100
C          -3.74054100     -0.76413600     -0.04740300
C          -3.24551400     -1.98519500     -0.29400000
C          -5.22669900     -0.51637300      0.04363200
H          -0.97106500     -0.44374300      0.74350800
H          -0.85127900      1.24593000      0.21013600
H          -1.09867600     -0.05046400     -0.98641400
H          -3.23195600      1.25403300     -0.52312300
H          -3.11244200      0.86448400      1.17696300
H          -2.17331500     -2.18019100     -0.36807100
H          -3.90995900     -2.84189100     -0.43724400
H          -5.54857200      0.24395200     -0.69046400
H          -5.80724500     -1.43388800     -0.13400300
H          -5.50486600     -0.11427100      1.03566100
