23
b3lypvdz=-276.185966677754 
C          -1.34036400      0.28420100      0.01934500
C          -2.83110000      0.55362300      0.32420600
C          -0.36815300      1.44362900      0.27360800
C          -3.39868100      1.69053400     -0.54693300
C          -3.08289100      0.78193400      1.82267700
C          -4.92460800      1.88366800     -0.51071200
C          -5.73377700      0.66828600     -0.98045000
H          -1.01718500     -0.58762200      0.61704000
H          -1.25526800     -0.02576300     -1.03861300
H          -3.36435300     -0.37444200      0.04220000
H           0.66448600      1.13941800      0.03269300
H          -0.37715100      1.77032800      1.32792600
H          -0.60168900      2.32336800     -0.34822100
H          -3.09319400      1.50950100     -1.59609800
H          -2.92331400      2.64285000     -0.24679600
H          -2.61928900     -0.01408800      2.42936900
H          -2.66482400      1.74461200      2.16655200
H          -4.15976100      0.78965400      2.05897500
H          -5.24709300      2.17225800      0.50622200
H          -5.17358100      2.74613000     -1.15461800
H          -6.80785800      0.91053300     -1.04890800
H          -5.63255300     -0.19000600     -0.29578000
H          -5.40310000      0.33209300     -1.97948400
