17
b3lypvdz=-197.61760028605 
C          -1.45375800      0.26167600     -0.01769200
C          -0.87792600     -1.11206400      0.35148700
C           0.60756700     -1.29758900     -0.00830600
C           1.57176400     -0.23984900      0.55321100
C           1.56157400     -0.10527000      2.07906000
H          -2.53615600      0.31030500      0.19013700
H          -0.97684600      1.07323700      0.55581800
H          -1.30671200      0.48480300     -1.08989700
H          -1.45877100     -1.89986200     -0.16026600
H          -1.02591000     -1.28914800      1.43296600
H           0.93255500     -2.29682100      0.33757100
H           0.70910300     -1.30894600     -1.11025200
H           1.34606400      0.74325500      0.10048600
H           2.59353700     -0.49426600      0.21775800
H           1.78600400     -1.06851700      2.57031400
H           2.31523900      0.62391100      2.41828900
H           0.58417100      0.23874400      2.45711800
