23
b3lypvdz=-276.18709647789 
C          -1.45844200      0.25503600     -0.06540800
C           1.61777500     -0.17954300      0.60765000
C          -2.94028200      0.56906500      0.20132900
C          -0.48095900      1.35973600      0.36086000
C           0.99312400      1.08927200      0.00332900
C          -3.49248500      1.77551200     -0.56589200
C           1.74051800     -0.15713700      2.13407500
H          -1.20210100     -0.68353800      0.45712500
H          -1.32553800      0.04750200     -1.14615200
H           1.03561300     -1.06509000      0.29376500
H           2.62175500     -0.31938000      0.16793000
H          -3.53954300     -0.32333700     -0.05642500
H          -3.08676500      0.73048200      1.28726000
H          -0.58625200      1.53710600      1.44831100
H          -0.77106800      2.30669300     -0.12704600
H           1.08566100      1.04432900     -1.09803500
H           1.59706000      1.96062200      0.32060100
H          -4.57272000      1.90227000     -0.38244300
H          -3.34997800      1.65613800     -1.65564200
H          -2.99997500      2.71523400     -0.26618800
H           2.21614800     -1.07719000      2.51265600
H           2.35982300      0.69281400      2.47164500
H           0.75893200     -0.06509600      2.62959600
