23
b3lypvdz=-276.18789359992 
C          -1.40366200      0.26084300     -0.02257500
C           1.62786700     -0.18759500      0.52789900
C          -2.89226800      0.56917400      0.18974600
C          -0.44081100      1.37050900      0.42409500
C           1.03190200      1.13990000      0.04506300
C          -3.44550500      1.71749200     -0.66018700
C          -4.94808700      1.93767500     -0.48524300
H          -1.15470100     -0.66811700      0.51873800
H          -1.23559900      0.03579300     -1.09504600
H           1.13067600     -1.05249900      0.05892800
H           2.70085000     -0.25790200      0.28285400
H           1.52655300     -0.30769600      1.62182900
H          -3.48046000     -0.34161100     -0.03164000
H          -3.07265600      0.78793600      1.26174200
H          -0.52686300      1.49879300      1.52121500
H          -0.75857700      2.33141800     -0.01682300
H           1.13554100      1.20693800     -1.05487500
H           1.63207700      1.97486100      0.44993600
H          -3.21883200      1.51009900     -1.72434700
H          -2.91289400      2.65494700     -0.41789300
H          -5.52226400      1.02752500     -0.73516200
H          -5.19758600      2.20264200      0.55728200
H          -5.32369900      2.74677400     -1.13163600
