18
b3lypvdz=-235.682437045275 
C          -1.30689400      0.24623600      0.16551500
C          -2.81383900      0.49385600      0.18506300
C          -3.70934600     -0.69530700     -0.10697300
C          -3.24100900     -1.90302600     -0.45348600
C          -5.20008600     -0.45131800      0.03375400
C          -5.78495900      0.55269700     -0.96935700
H          -1.01666500     -0.53496200      0.88608500
H          -0.75849000      1.16419200      0.43034000
H          -0.95781700     -0.07540000     -0.82945900
H          -3.06218700      1.30272800     -0.52689800
H          -3.10776800      0.90009100      1.17287900
H          -2.17441700     -2.11384000     -0.55686600
H          -3.92473300     -2.73392400     -0.64782900
H          -5.72842200     -1.41328000     -0.06996300
H          -5.40711700     -0.08328600      1.05736300
H          -6.87347800      0.65141100     -0.82451800
H          -5.34604400      1.55664800     -0.85303500
H          -5.60922900      0.22278200     -2.00731600
