14
b3lypvdz=-158.333503644622 
C           1.05307900      1.20634200     -0.05476500
C          -1.35244100      0.23204000     -0.06690500
C          -0.92770300     -1.14934200      0.45065200
C          -0.42233200      1.39496400      0.32301200
H           1.51803800      0.37828800      0.50459400
H           1.16943700      0.99236500     -1.13254200
H           1.63373000      2.11736000      0.16928600
H          -2.36658500      0.46017800      0.30909900
H          -1.43757100      0.19137600     -1.16982100
H           0.01353000     -1.48768900     -0.01273800
H          -1.69648700     -1.90550900      0.21809800
H          -0.78239800     -1.14566700      1.54607300
H          -0.49701700      1.56904600      1.41351000
H          -0.80088000      2.31494800     -0.15845100
