18
b3lypvdz=-235.679156729535 
C          -1.37308600      0.28229700      0.01018100
C          -2.86015200      0.50179500      0.32489200
C          -3.70039000     -0.73787600      0.06943300
C          -3.40592100      1.65548400     -0.54608900
C          -3.28327400     -1.95549600     -0.28924100
C          -3.01668200      0.88348700      1.81546400
H          -0.93920500     -0.52041500      0.62717700
H          -0.80284000      1.20353900      0.21548300
H          -1.21968400      0.01850000     -1.04884500
H          -4.77825300     -0.58362700      0.22255600
H          -4.47252600      1.84394200     -0.33574900
H          -3.30865600      1.42573100     -1.62050600
H          -2.85186700      2.58766300     -0.34293000
H          -2.22974700     -2.19165600     -0.46237900
H          -3.99549800     -2.77319600     -0.42971300
H          -2.61105800      0.09469600      2.46875300
H          -2.47917700      1.82204500      2.03449800
H          -4.07648400      1.03178800      2.08281400
