17
b3lypvdz=-272.527013530676 
C           1.67120500     -0.20784800      0.78539300
C           2.87449900     -0.75264200      0.05173600
C           2.92671500     -2.05249800     -0.29854200
C           3.99021500      0.17933400     -0.26348200
C           5.00216900     -0.25812300     -1.25830300
C           4.07957500      1.40511000      0.29912500
C           6.32345900     -0.06087700     -1.16040800
H           0.88764700     -0.97404400      0.87729700
H           1.24597000      0.66503900      0.26313400
H           1.93508700      0.12792900      1.80364700
H           2.10079100     -2.72845400     -0.06176600
H           3.79070500     -2.48702100     -0.80463200
H           4.60827700     -0.77980100     -2.13855000
H           4.88387100      2.08713000      0.01667600
H           3.36225900      1.75751700      1.04209000
H           6.76928500      0.41418300     -0.28144400
H           7.00267000     -0.37843400     -1.95576900
