23
b3lypvdz=-276.18501088514 
C          -1.38591000      0.28241900     -0.11506800
C          -0.81341800     -1.09038300      0.33292200
C           0.65648900     -1.26746700     -0.11747300
C          -2.84171900      0.48878600      0.34063100
C          -0.53258200      1.47294500      0.35656400
C          -1.69001700     -2.26165100     -0.14106100
C           1.27492400     -2.64202600      0.17341700
H          -1.37739300      0.28577900     -1.22413000
H          -0.82412200     -1.09985600      1.44357800
H           1.27609600     -0.49899400      0.37278400
H           0.72476800     -1.06588200     -1.20485100
H          -3.53558900     -0.22442600     -0.12861800
H          -3.18925200      1.50095700      0.07324000
H          -2.93880000      0.38160000      1.43660300
H           0.47098600      1.47976100     -0.09446400
H          -0.40966100      1.47258600      1.45493000
H          -1.01843200      2.42330400      0.07887800
H          -2.72415200     -2.17811200      0.22477400
H          -1.30424400     -3.22350600      0.22780500
H          -1.72271900     -2.31445200     -1.24484900
H           2.35194800     -2.64237500     -0.06511200
H           0.81063300     -3.44208800     -0.42392700
H           1.16816600     -2.91641900      1.23802500
