20
b3lypvdz=-236.903040485803 
C          -1.43443300      0.30625400     -0.05206100
C          -0.84505600     -1.02681200      0.43381400
C           0.60923000     -1.28334300     -0.00349700
C           1.63127500     -0.25968100      0.50658600
C          -2.90684400      0.53233100      0.33796200
C          -3.13043500      0.80863400      1.83074600
H          -0.83492500      1.14971500      0.33641600
H          -1.34782500      0.34833400     -1.15442900
H          -1.47625600     -1.85025000      0.04986200
H          -0.90134000     -1.08485400      1.53756600
H           0.90704600     -2.28719700      0.34964200
H           0.65543100     -1.31954100     -1.10879500
H           1.46813300      0.73959200      0.07002900
H           2.65645600     -0.56768100      0.23975400
H           1.58623700     -0.16012900      1.60567700
H          -3.50973700     -0.34228300      0.02793500
H          -3.29615800      1.38901100     -0.24109500
H          -2.85424200     -0.05445700      2.45944000
H          -2.53119200      1.67228400      2.16699100
H          -4.18976700      1.03837400      2.03555800
