15
b3lypvdz=-196.393862260962 
C           1.51317700     -0.27841000      0.48376500
C          -0.35039800      1.44640500      0.32326500
C           1.13039000      1.14836500      0.08086700
C           2.94603800     -0.68511500      0.25333600
C           3.88564900      0.01021200     -0.39531000
H           0.86116600     -1.00003000     -0.04740000
H           1.27470000     -0.43383800      1.55472300
H          -0.99767500      0.78984200     -0.28177300
H          -0.62171700      1.28913800      1.38189800
H          -0.60173100      2.48739500      0.06256600
H           1.36881500      1.31599000     -0.98456100
H           1.75359300      1.86189900      0.64894700
H           3.21659200     -1.66634000      0.66473200
H           4.89529900     -0.39094200     -0.51953800
H           3.69100500      0.99432900     -0.83031800
