21
b3lypvdz=-274.963782463841 
C          -0.83145700     -0.99347700      0.27163900
C           0.63381100     -1.42439300      0.13609200
C           1.65047600     -0.41985700      0.72903100
C          -1.81387100     -2.04800700     -0.24141300
C           3.03487800     -0.67963400      0.19003400
C           1.67083400     -0.47398600      2.26797500
C           3.77347300      0.18467500     -0.51202400
H          -0.97885400     -0.04887500     -0.28346200
H          -1.06469300     -0.76214000      1.32638900
H           0.77729600     -2.40872300      0.62180200
H           0.86019600     -1.57759500     -0.93408300
H           1.34981800      0.59776500      0.41810100
H          -2.85733500     -1.70321500     -0.14802600
H          -1.72175900     -2.99111700      0.32333800
H          -1.63292900     -2.28324000     -1.30497600
H           3.44590700     -1.67449100      0.41319100
H           2.02197000     -1.46052600      2.62004600
H           2.35174400      0.28448800      2.68373700
H           0.67019800     -0.30323400      2.69591800
H           4.77184600     -0.07422500     -0.87415900
H           3.40045000      1.18580700     -0.75365000
