18
b3lypvdz=-235.710717034645 
C          -1.37052600      0.27017800     -0.09229000
C          -0.86839300     -1.09666600      0.40353700
C           0.60105300     -1.33920900      0.01878500
C           1.50927300     -0.18982200      0.48410700
C          -0.45672400      1.42312400      0.35415900
C           1.01338800      1.17470500     -0.02315900
H          -2.39928900      0.44893200      0.26743900
H          -1.42447100      0.25625600     -1.19803800
H          -1.50691000     -1.90063500     -0.00242300
H          -0.96872400     -1.14732700      1.50553200
H           0.95360800     -2.29616600      0.44085700
H           0.67619200     -1.43618300     -1.08190000
H           2.54702400     -0.36643000      0.15077200
H           1.53344700     -0.17628700      1.59140500
H          -0.53406500      1.54774000      1.45139500
H          -0.80782900      2.37020400     -0.09157300
H           1.12153800      1.21477100     -1.12482000
H           1.64830800      1.98301300      0.37981500
