15
b3lypvdz=-196.394225242575 
C           0.51936300     -1.24961500     -0.01500000
C           1.53308400     -0.23082200      0.54277900
C           1.23705700      1.18332500      0.03242100
C           2.94262500     -0.70952300      0.27514800
C           3.88368300     -0.10070800     -0.45258900
H          -0.51115300     -0.96773300      0.25882900
H           0.70761800     -2.26137900      0.38166900
H           0.58015100     -1.30434800     -1.11543400
H           1.40961400     -0.22935700      1.64427900
H           0.21391300      1.48523600      0.30920600
H           1.31358500      1.24633400     -1.06653600
H           1.93411000      1.91952900      0.46337400
H           3.18144800     -1.67982700      0.73145200
H           4.86734600     -0.55679500     -0.59373300
H           3.71825600      0.86708300     -0.93336400
