17
b3lypvdz=-197.619758331257 
C          -0.79636300     -1.17817000      0.40551300
C           0.66105100     -1.25913200     -0.08900900
C           1.49455200     -0.12389300      0.52341600
C          -1.73773100     -2.25521500     -0.14716600
C           1.30377800     -2.62728200      0.18074900
H          -1.19642500     -0.18290900      0.13740400
H          -0.80347300     -1.22421400      1.51249800
H           0.64897600     -1.10672400     -1.18730900
H           1.04584100      0.86045000      0.30522000
H           2.52231600     -0.11967500      0.12344900
H           1.56148100     -0.22634700      1.62196400
H          -2.77630200     -2.06680500      0.17288900
H          -1.46312100     -3.26177200      0.20898100
H          -1.72445000     -2.27204700     -1.25138100
H           2.35967400     -2.63447400     -0.13956000
H           0.79170500     -3.43515600     -0.36509300
H           1.27629200     -2.87513300      1.25773600
