17
b3lypvdz=-197.619021446237 
C          -1.36040700      0.29016200     -0.09799900
C          -2.83928900      0.52183700      0.24759600
C          -0.42353300      1.46448100      0.21414500
C           1.05678100      1.11489900      0.04301800
C          -3.48917800      1.72272000     -0.44629600
H          -1.00578300     -0.59968800      0.45480800
H          -1.27033800      0.03252100     -1.17211800
H          -3.40607500     -0.39295500     -0.00448300
H          -2.93685300      0.64448300      1.34399400
H          -0.60279300      1.80846900      1.25138100
H          -0.67453900      2.32233000     -0.43453000
H           1.35555000      0.29435900      0.71792400
H           1.27492400      0.78326000     -0.98787500
H           1.70966400      1.97614800      0.26171900
H          -4.55900100      1.79742900     -0.18901900
H          -3.41438500      1.64520600     -1.54622900
H          -3.01694500      2.67293900     -0.14683500
