20
b3lypvdz=-236.903235428454 
C          -1.38938500      0.25670100     -0.03513200
C          -0.87949100     -1.11070000      0.43121200
C          -2.86740100      0.54101600      0.30001300
C          -3.41051100      1.68844200     -0.57224700
C          -3.05684200      0.81496800      1.79942000
C          -4.91966100      1.93291400     -0.47369300
H          -0.76422900      1.05734200      0.40423300
H          -1.25204800      0.33724400     -1.12878400
H           0.16926900     -1.26939600      0.13028400
H          -1.47611500     -1.92517100     -0.01458300
H          -0.93076200     -1.22543900      1.52696600
H          -3.44831900     -0.36776400      0.03766700
H          -3.15823400      1.46431400     -1.62482200
H          -2.86582900      2.61948300     -0.32032200
H          -2.72135600     -0.03139600      2.42008200
H          -2.47064300      1.70038400      2.10621300
H          -4.11005900      1.01005300      2.05685400
H          -5.48803600      1.01427400     -0.70437900
H          -5.22995300      2.27081700      0.52837600
H          -5.24199700      2.70431600     -1.19135700
