17
b3lypvdz=-197.617649514094 
C          -1.43347900      0.28961800     -0.08841000
C           1.58135500     -0.16488000      0.58434300
C          -0.46679500      1.42062700      0.28340700
C           1.01415400      1.12872300     -0.02353700
C           1.59574400     -0.18466200      2.11656300
H          -1.28240200     -0.60426700      0.53894500
H          -2.48005500      0.61193000      0.04730000
H          -1.30961200     -0.01632400     -1.14273900
H           1.01297500     -1.03391500      0.20811900
H           2.61363000     -0.30172000      0.21455600
H          -0.58936100      1.66167500      1.35537900
H          -0.75747800      2.33413600     -0.26543200
H           1.14612900      1.08987000     -1.12165800
H           1.62310900      1.98367400      0.32510400
H           2.05522500     -1.11225700      2.49678800
H           2.17620400      0.66244500      2.52082800
H           0.57785800     -0.12367400      2.53744200
