5
b3lypvdz=-40.480458480665 
C          -1.39674300      0.24846600     -0.06829000
H          -1.04147100     -0.70286700      0.35530600
H          -2.42104500      0.44455700      0.28314600
H          -0.73449200      1.06266300      0.25958700
H          -1.38984900      0.18818100     -1.16724900
