15
b3lypvdz=-196.39852544597 
C          -2.91021400      0.46113900      0.37283400
C          -3.75594400     -0.74244500      0.00925500
C          -3.20521100     -1.93919100     -0.23899500
C          -3.02879200      0.87924500      1.85083000
C          -5.24916200     -0.52490300     -0.05258700
H          -1.85274200      0.24853900      0.14075900
H          -3.20370000      1.31484900     -0.26732600
H          -2.12108000     -2.08754200     -0.20636100
H          -3.81763400     -2.81066400     -0.48811200
H          -2.73206600      0.05293500      2.51793000
H          -2.37231300      1.73848900      2.06680000
H          -4.05766100      1.17472300      2.11706100
H          -5.49918000      0.26035800     -0.78852500
H          -5.78355400     -1.44306300     -0.34178900
H          -5.64924800     -0.19117000      0.92182400
