21
b3lypvdz=-274.963233886059 
C          -0.85664200     -1.01699100      0.17559500
C           0.63156400     -1.37210500      0.07805900
C           1.58661800     -0.28580100      0.59485400
C          -1.76282500     -2.13294100     -0.35050900
C          -3.85417600     -0.85831100      0.33441200
C          -3.24772200     -1.89248100     -0.25809300
C           1.54691000     -0.06709200      2.11049500
H          -1.05173800     -0.09067300     -0.39616400
H          -1.12040100     -0.79147000      1.22383100
H           0.82034300     -2.31288000      0.62979100
H           0.87743200     -1.59046900     -0.97745400
H           1.36554000      0.66650700      0.07746400
H           2.61630700     -0.55879800      0.30211900
H          -1.53128000     -3.07639000      0.18283800
H          -1.50820500     -2.34768900     -1.40717800
H          -3.29463800     -0.05780900      0.82427100
H          -4.94425600     -0.77608300      0.35451100
H          -3.86972400     -2.66313800     -0.73163000
H           1.78785500     -0.99833000      2.65281400
H           2.28095400      0.69308800      2.42272300
H           0.55788400      0.27275500      2.45984900
