12
b3lypvdz=-157.109295233835 
C           1.69737800     -0.08583900      0.61883200
C           4.01361800     -0.02060400     -0.39527600
C           3.00859900     -0.68285100      0.18498100
C           1.45505900     -0.23961000      2.12678200
H           0.87626600     -0.58626800      0.07218000
H           1.65820400      0.97995600      0.33357800
H           4.94191400     -0.52349700     -0.67872400
H           3.94492400      1.05103800     -0.61199600
H           3.13250700     -1.75608600      0.38685900
H           1.50965100     -1.29955800      2.42946500
H           2.20972900      0.31050700      2.71100200
H           0.46125100      0.14191200      2.41331700
