14
b3lypvdz=-233.239023175063 
C           2.81571100     -0.83705300      0.05758200
C           2.67728600     -2.15993300     -0.14047300
C           4.01310100     -0.03262300     -0.18940500
C           5.02906200     -0.35755500     -1.02313900
C           6.24211700      0.42517200     -1.26879300
C           6.62855100      1.55456800     -0.64893500
H           1.95960000     -0.28455800      0.46292400
H           1.72936300     -2.66534800      0.05586600
H           3.50716800     -2.78091400     -0.49004600
H           4.05645800      0.92855000      0.33397000
H           4.94231100     -1.28704500     -1.59492900
H           6.89726900      0.02405700     -2.05088500
H           6.04347200      2.01342300      0.15344900
H           7.55433300      2.05975900     -0.93138700
