20
b3lypvdz=-236.903216026964 
C          -1.34948100      0.20909100     -0.14168500
C          -0.92692500     -1.11441000      0.51431500
C          -2.82813100      0.50014400      0.19451100
C          -0.42746100      1.38313900      0.24919400
C           1.06107600      1.18308200     -0.05727700
C          -3.43020400      1.75759300     -0.44187600
H          -1.27523600      0.08436100     -1.24160400
H           0.08390600     -1.42575200      0.20755300
H          -1.61935300     -1.92729200      0.23884900
H          -0.93266200     -1.03589600      1.61686500
H          -3.42753600     -0.37590000     -0.11439000
H          -2.93394400      0.55917500      1.29590000
H          -0.55829200      1.59879000      1.32775200
H          -0.77147300      2.28644200     -0.28283400
H           1.51246600      0.38107200      0.54822200
H           1.22083600      0.92235500     -1.11900400
H           1.63387700      2.10340000      0.14602200
H          -4.50506900      1.83912700     -0.20931000
H          -3.32762100      1.74327900     -1.54208100
H          -2.95217300      2.68040000     -0.07582300
