17
b3lypvdz=-197.618408041619 
C          -1.38496700      0.27464900     -0.02095600
C          -2.86100300      0.57166500      0.32460800
C          -0.38526800      1.40347500      0.26574200
C          -3.43398200      1.73295700     -0.50406900
C          -3.07500500      0.80508700      1.82822200
H          -1.07003900     -0.62801200      0.53512400
H          -1.32339200      0.00838400     -1.09251200
H          -3.43240800     -0.33678600      0.05198900
H           0.63367000      1.09645200     -0.02524100
H          -0.35660100      1.66750800      1.33655100
H          -0.62534000      2.31867300     -0.30088000
H          -4.51657100      1.85168500     -0.32405100
H          -3.29104600      1.56311400     -1.58614500
H          -2.95266000      2.69212500     -0.24523900
H          -2.64179700     -0.01388200      2.42807500
H          -2.61239500      1.74867500      2.16601800
H          -4.15059700      0.86223100      2.06816500
