18
b3lypvdz=-289.793844849161 
N           5.22089000      2.21797400      0.01188300
C           0.50638300     -1.14736500      0.09837700
C           1.68128800     -0.34217500      0.67351500
C           2.97987200     -0.71767100     -0.00613600
C           1.79941200     -0.55005900      2.19635000
C           4.05750000      0.06474800     -0.21371400
C           4.18077000      1.48140900      0.14990900
H           5.98501000      1.66051400     -0.40415400
H          -0.43985100     -0.85984900      0.58390900
H           0.64893700     -2.23063900      0.26260200
H           0.39662200     -0.98132300     -0.98573800
H           1.47756800      0.72777000      0.49234200
H           3.05401800     -1.76554100     -0.32471600
H           2.04546900     -1.59902100      2.43580200
H           2.58887400      0.08490700      2.62636500
H           0.84866200     -0.30162700      2.69761500
H           4.93988800     -0.37423700     -0.69618400
H           3.29498800      1.96428300      0.59367300
