13
b3lypvdz=-195.182320395069 
C           1.60489300     -0.20310000      0.59509400
C           2.81110300     -0.63785600     -0.18133900
C           3.93297500      0.08126900     -0.37299100
C           5.08193800     -0.39569000     -1.13389300
C           6.22309300      0.28772500     -1.32632000
H           0.70158800     -0.23804000     -0.04115100
H           1.71180700      0.81929700      0.99129200
H           1.40782600     -0.87812500      1.44686500
H           2.75673500     -1.63815600     -0.63125800
H           4.01209900      1.08372600      0.06779600
H           4.98435700     -1.39524200     -1.57498100
H           6.37149200      1.28761300     -0.90599300
H           7.04669500     -0.13542100     -1.90632100
