18
b3lypvdz=-235.683792902612 
C          -1.73066900     -2.36098100     -0.18074200
C          -3.71149600     -0.80300600      0.05130600
C          -3.18907500     -2.00374100     -0.22901300
C          -5.18111000     -0.47594900      0.01691200
C          -5.06069900      2.04467500     -0.56351500
C          -5.58385700      0.65661000     -0.94798700
H          -1.11036200     -1.50350900      0.12600100
H          -1.54281800     -3.18531300      0.53055700
H          -1.36665200     -2.71470000     -1.16282300
H          -3.02941100      0.00709800      0.34459700
H          -3.87366200     -2.81433800     -0.51680800
H          -5.74106100     -1.38866400     -0.25329000
H          -5.51761500     -0.19481400      1.03543600
H          -3.96049400      2.10636700     -0.62002100
H          -5.35774100      2.31016500      0.46689800
H          -5.46863400      2.81913000     -1.23310900
H          -6.68778800      0.69055800     -0.98605000
H          -5.24415700      0.39791300     -1.96755100
