18
b3lypvdz=-235.677662052738 
C          -0.81295000     -1.05344700      0.17528800
C           0.68408600     -1.25757800     -0.11405500
C          -1.72319100     -2.15262000     -0.37993500
C           1.25696200     -2.59672700      0.36635800
C          -3.80018200     -0.85711400      0.32063900
C          -3.20514400     -1.91056100     -0.24861700
H          -1.12520100     -0.08243900     -0.24800500
H          -0.96791300     -0.97490500      1.26785800
H           1.24474500     -0.43356800      0.36197100
H           0.86210300     -1.15368400     -1.20134400
H          -1.49368000     -3.11822700      0.10971300
H          -1.49049300     -2.32591600     -1.45066200
H           2.34638800     -2.64757700      0.20075400
H           0.80749700     -3.44906600     -0.16884600
H           1.07426100     -2.75069900      1.44551500
H          -3.23480100     -0.03464100      0.76628600
H          -4.89030600     -0.78026800      0.36294200
H          -3.83818100     -2.70266400     -0.67066000
