23
b3lypvdz=-276.185927521522 
C          -1.34849600      0.33294600     -0.10112100
C          -0.85436300     -1.04634000      0.38865900
C           0.58581700     -1.40695300     -0.00414500
C          -2.83110900      0.57014100      0.30720100
C          -0.41816600      1.48074000      0.32340800
C          -3.48317400      1.70548800     -0.50091100
C          -3.02362600      0.81457900      1.81415100
H          -1.33487900      0.29685100     -1.20898600
H          -1.53588800     -1.81641900     -0.01701900
H          -0.94622000     -1.10732800      1.48941300
H           1.32247200     -0.75744200      0.49451100
H           0.81902500     -2.44496400      0.28710700
H           0.74093700     -1.32114200     -1.09432800
H          -3.37800200     -0.35752700      0.04981500
H           0.57327400      1.38481000     -0.14621800
H          -0.26750600      1.50352400      1.41617300
H          -0.81999700      2.46009800      0.01750400
H          -4.56379900      1.76799700     -0.28653600
H          -3.36750800      1.54572200     -1.58717700
H          -3.04495900      2.68731600     -0.25306200
H          -2.60712600      0.00010000      2.42836100
H          -2.54589100      1.75503000      2.13679400
H          -4.09621700      0.89227200      2.05900400
