11
b3lypvdz=-248.144888327684 
N           5.56847300      1.90384300      0.34450900
C           4.14045100      0.02893300     -0.19686800
C           5.04483900     -0.41016500     -1.16690000
C           4.44859400      1.18677000      0.52420700
C           6.21577100      0.32413400     -1.36901300
C           6.42684300      1.46544900     -0.58882000
H           3.21324800     -0.51529800     -0.00170500
H           4.84134200     -1.30980200     -1.75396700
H           3.76107200      1.56657100      1.28928100
H           6.95453900      0.01714100     -2.11342900
H           7.33342800      2.06832300     -0.71589500
