17
b3lypvdz=-197.61876313457 
C          -1.43324000      0.34261800      0.01700700
C          -0.86629500     -1.01719300      0.44770000
C           0.58633100     -1.28858600      0.02420000
C           1.61215900     -0.24691500      0.48232200
C          -2.93776100      0.46430500      0.26937300
H          -0.90377500      1.15220300      0.55039500
H          -1.22522200      0.50523500     -1.05828100
H          -1.50516000     -1.81669100      0.02772200
H          -0.95706200     -1.11064000      1.54823100
H           0.88250300     -2.27936200      0.41292200
H           0.62849100     -1.37075700     -1.07872400
H           1.43724900      0.73757400      0.01716900
H           2.63431800     -0.55807900      0.20884100
H           1.58857500     -0.10386900      1.57723800
H          -3.50237200     -0.29282800     -0.30083500
H          -3.32427100      1.45285800     -0.02933600
H          -3.18006900      0.31682600      1.33665700
