10
b3lypvdz=-155.885605994191 
C           2.73389700     -2.10636200     -0.06497700
C           2.89778200     -0.77909200      0.04377200
C           4.13308200     -0.03162600     -0.24523100
C           5.05667600     -0.35710100     -1.16263500
H           1.77195500     -2.57600400      0.15572300
H           3.55555500     -2.76583400     -0.36051400
H           2.05356100     -0.17645900      0.40136200
H           4.27825500      0.88639300      0.33761600
H           5.95169200      0.25446400     -1.30109800
H           4.94264300     -1.23117900     -1.81071800
