19
b3lypvdz=-273.749227922609 
C           1.49882600     -0.16716000      0.49462400
C           1.02918500      1.24005000      0.08797500
C           2.74296300     -0.62473200     -0.24462500
C           1.70981600     -0.25069500      2.01979900
C           3.86771100      0.09302600     -0.42601400
C           5.05879100     -0.41833900     -1.09279200
C           6.21274300      0.25590600     -1.23409900
H           0.69239500     -0.87590600      0.23302700
H           0.08265500      1.49123500      0.59515400
H           0.86657700      1.31058100     -0.99916300
H           1.76685100      2.00957100      0.37081700
H           2.72904700     -1.65251900     -0.62931400
H           2.02134800     -1.26042700      2.33408800
H           2.49787400      0.45115000      2.34030800
H           0.78399600      0.00969500      2.56125200
H           3.92577900      1.12055100     -0.04571000
H           4.98411600     -1.43491400     -1.49830400
H           6.33407300      1.26963200     -0.83895600
H           7.07345300     -0.18840600     -1.73906800
