17
b3lypvdz=-197.620622582248 
C          -1.40963500      0.29898700     -0.06512400
C          -0.79038300     -1.05155600      0.31721700
C           0.67538900     -1.20403700     -0.11045900
C          -2.87562500      0.42933800      0.36772200
C           1.25101000     -2.58503400      0.22720000
H          -0.81667800      1.11580700      0.38716800
H          -1.33591600      0.43463300     -1.16079100
H          -1.38669500     -1.86570100     -0.13772200
H          -0.86681800     -1.19063800      1.41350400
H           1.28365700     -0.42081600      0.37827700
H           0.75984200     -1.02564300     -1.19950900
H          -3.49680700     -0.36108100     -0.08683400
H          -3.30044900      1.40075100      0.06387400
H          -2.97703700      0.34413500      1.46424000
H           2.30116100     -2.67579500     -0.09788800
H           0.67699200     -3.38632900     -0.26804900
H           1.21639100     -2.77322200      1.31497300
