17
b3lypvdz=-197.618537552179 
C          -1.36341800      0.25042400     -0.03038400
C          -0.69581800     -1.07688000      0.37530600
C           0.75114000     -1.26638800     -0.10200000
C          -0.59819100      1.52678500      0.34307600
C           1.27412300     -2.68257500      0.17079200
H          -2.36589700      0.28573100      0.43209000
H          -1.53209100      0.24634300     -1.12389700
H          -1.31156900     -1.90448400     -0.02338000
H          -0.72572500     -1.18156400      1.47827700
H           1.40990800     -0.53424800      0.39770100
H           0.81718900     -1.05620800     -1.18664500
H           0.34614500      1.61791200     -0.21780000
H          -0.35570000      1.55705200      1.42006600
H          -1.20317300      2.41984500      0.11045800
H           2.31948500     -2.79616700     -0.16262000
H           0.67058400     -3.43800900     -0.36011100
H           1.23420900     -2.92027000      1.24837000
