17
b3lypvdz=-197.618359833494 
C          -1.39782500      0.24753400     -0.09039600
C          -0.88325500     -1.09456500      0.45286700
C          -2.84891300      0.54838800      0.34941600
C          -0.43882000      1.39902600      0.24762400
C          -3.05860900      0.78911100      1.85120200
H          -1.42030700      0.16134400     -1.19400800
H           0.12550600     -1.31660800      0.06562000
H          -1.54556800     -1.92504400      0.15447500
H          -0.81995300     -1.09684000      1.55513000
H          -3.49484300     -0.28891100      0.02436500
H          -3.20536300      1.43375700     -0.20906900
H           0.55570100      1.23055800     -0.19854000
H          -0.29834200      1.51014300      1.33672900
H          -0.81773500      2.36066400     -0.13949800
H          -2.74265300     -0.07480100      2.46020800
H          -2.49669900      1.66638200      2.21219000
H          -4.12362300      0.97046200      2.07178400
