14
b3lypvdz=-158.333961474946 
C           1.10734200      1.23198300     -0.03681500
C          -0.90491600     -1.19332000      0.45012100
C           0.55885700     -1.30106200     -0.00187100
C           1.47087900     -0.16399100      0.48907300
H           0.11375500      1.55741700      0.31445400
H           1.10075500      1.25576200     -1.14132100
H           1.83697800      1.98326400      0.30838200
H          -1.39988800     -0.30006200      0.03441500
H          -1.48592800     -2.07007900      0.11788100
H          -0.98068500     -1.13949900      1.55093100
H           0.97238700     -2.25974500      0.36086600
H           0.59942700     -1.34717300     -1.10692900
H           2.50967200     -0.39570400      0.18976900
H           1.46506500     -0.14959000      1.59574400
