19
b3lypvdz=-273.775420916126 
C          -2.97879500      0.51470200      0.35582400
C          -3.75576300     -0.73648000      0.01177600
C          -3.37267700      1.69683200     -0.55118100
C          -3.16942500     -1.90788000     -0.26461400
C          -5.25499800     -0.53855800     -0.02026900
C          -4.89103600      1.92412600     -0.55025700
C          -5.65052000      0.64396500     -0.92698300
H          -1.89506600      0.31999300      0.29332500
H          -3.20000800      0.79338500      1.40698300
H          -3.03371700      1.48628800     -1.58315600
H          -2.84537700      2.60898200     -0.22175500
H          -2.08046500     -2.02118200     -0.24692500
H          -3.75830400     -2.79477600     -0.51772800
H          -5.75768700     -1.46472600     -0.34360100
H          -5.60911800     -0.32025300      1.00825600
H          -5.21141700      2.25449600      0.45739200
H          -5.15531200      2.74005600     -1.24471100
H          -6.74028600      0.81268800     -0.87148000
H          -5.41913000      0.37894300     -1.97659600
