21
b3lypvdz=-274.969501205133 
C          -1.31779900      0.19176100     -0.01498300
C          -2.81758900      0.40904900      0.18757500
C          -0.48499900      1.45255600      0.24367800
C           1.01903300      1.22098400      0.08233200
C          -3.73423300     -0.77107000     -0.06211300
C          -3.30258800     -1.98961800     -0.41656600
C          -5.20287600     -0.47832900      0.12705100
H          -0.96771300     -0.61518800      0.65367800
H          -1.13138100     -0.16154600     -1.04598700
H          -3.15756600      1.24749800     -0.45205000
H          -2.99628000      0.76665200      1.22211100
H          -0.69401600      1.82554000      1.26396200
H          -0.81363600      2.25377900     -0.44353600
H           1.38177400      0.44499700      0.77752100
H           1.26412500      0.88189400     -0.93962500
H           1.59630600      2.13895200      0.27954900
H          -2.24459300     -2.22026500     -0.55874100
H          -4.00759300     -2.80864000     -0.58366800
H          -5.53306200      0.33969800     -0.53767500
H          -5.82733100     -1.36066900     -0.07866600
H          -5.41098300     -0.13763500      1.15815400
