13
b3lypvdz=-195.180397093534 
C           1.61958100     -0.12324300      0.65899500
C           2.83901700     -0.83670800      0.12914400
C           2.79275700     -2.12804900     -0.25214900
C           4.10664200     -0.09369300      0.03251700
C           4.30143200      1.18719200      0.38669400
H           0.74032500     -0.78405000      0.64475100
H           1.39238200      0.77569600      0.06209300
H           1.77528200      0.22317500      1.69642600
H           1.86932600     -2.71010200     -0.19354600
H           3.68238700     -2.63762600     -0.63338500
H           4.95200400     -0.66336600     -0.37156800
H           5.28171000      1.65840600      0.27934000
H           3.49955600      1.80886700      0.79298900
