17
b3lypvdz=-197.618971457607 
C          -1.38285400      0.24237700     -0.02196900
C          -2.87080400      0.54604300      0.20714200
C          -0.42932500      1.39431400      0.31013200
C          -3.41240600      1.74715500     -0.57569500
C          -4.92937200      1.90615300     -0.45921100
H          -1.10572200     -0.63853100      0.58370200
H          -1.23514900     -0.05661500     -1.07713100
H          -3.46013700     -0.35069000     -0.06313500
H          -3.05013400      0.71094200      1.28814600
H           0.62200400      1.08285800      0.18993400
H          -0.55971500      1.73858600      1.35212900
H          -0.59059400      2.26546300     -0.34546300
H          -3.13134400      1.64179700     -1.64133500
H          -2.92250000      2.67172300     -0.22104700
H          -5.45685600      1.01562700     -0.84348800
H          -5.23861900      2.04256200      0.59170500
H          -5.29437600      2.77513500     -1.03001500
