14
b3lypvdz=-158.333362449384 
C           1.00650500      1.16707900      0.01714800
C           1.66311900     -0.15416700      2.12096200
C           1.50313500     -0.16815700      0.59872100
C          -0.49275100      1.40133800      0.21041000
H           1.23848900      1.20707600     -1.06187600
H           1.57763100      1.99451800      0.47742000
H           1.97183200     -1.14002100      2.50579300
H           2.43238300      0.57430800      2.42919300
H           0.72741300      0.12567300      2.63374300
H           0.80489000     -0.97251100      0.30096500
H           2.47278300     -0.43092800      0.14068100
H          -1.08431100      0.62525700     -0.30470200
H          -0.78237500      1.38155100      1.27428000
H          -0.80704100      2.37488400     -0.20063800
