23
b3lypvdz=-276.187894374552 
C          -1.31466400      0.29345900     -0.25878500
C          -0.86770700     -1.02307300      0.41022300
C           0.58348700     -1.43716800      0.15906900
C          -2.81884400      0.50856000      0.01472500
C          -0.45824900      1.49474800      0.16591100
C          -3.42536800      1.82805700     -0.47815000
C          -4.94685900      1.86252800     -0.33170100
H          -1.18543700      0.17193300     -1.35354300
H          -1.53907400     -1.82950300      0.06194100
H          -1.04214600     -0.94293500      1.50045500
H           1.30069200     -0.71765800      0.58536200
H           0.79937500     -2.41562100      0.61828400
H           0.79840900     -1.51840700     -0.92046700
H          -3.37516900     -0.32963500     -0.44515600
H          -2.99774500      0.41688100      1.10438700
H           0.60996000      1.32645400     -0.04495800
H          -0.55919400      1.70017700      1.24710500
H          -0.74919300      2.40693100     -0.37733100
H          -3.14946300      1.99444600     -1.53635700
H          -2.98871900      2.67255800      0.08274900
H          -5.42920800      1.07157500     -0.93005800
H          -5.25035600      1.70709300      0.71833000
H          -5.36762700      2.82629900     -0.66233400
