19
b3lypvdz=-273.74853865367 
C           1.60726400     -0.09699300      0.70313500
C          -0.39487200      1.45689600      0.32368800
C           0.90292200      0.88637400     -0.25480000
C           2.84721900     -0.73314700      0.10171200
C           2.76870000     -1.90432800     -0.56220400
C           4.14786100     -0.05425700      0.20849100
C           4.40427700      1.10033000      0.84603100
H           0.89396100     -0.88954200      0.98412600
H           1.86804600      0.43036800      1.63711300
H          -1.11913700      0.65239400      0.53800900
H          -0.21709400      2.00508400      1.26547800
H          -0.87283700      2.15774000     -0.38050500
H           0.68420800      0.35911500     -1.20007600
H           1.59356000      1.70803800     -0.51066600
H           1.82356000     -2.44580300     -0.65910800
H           3.64984900     -2.35355600     -1.02876400
H           4.97848700     -0.56975600     -0.28862700
H           5.41486100      1.51568200      0.87203100
H           3.62846300      1.67155900      1.36113800
