16
b3lypvdz=-234.458993620322 
C           1.54069800     -0.28564900      0.57730200
C           2.77439500     -0.98791000      0.03772500
C           1.68024300      0.14835800      2.04753800
C           2.76374300     -2.30726900     -0.22523000
C           3.97786600     -0.14505600     -0.15405100
C           4.98656400     -0.37025900     -1.00902600
H           0.67603700     -0.96168600      0.47292200
H           1.32191100      0.60309200     -0.04230700
H           1.88822900     -0.71889900      2.69542900
H           2.50100200      0.87063600      2.18790400
H           0.75723900      0.63344500      2.40619700
H           1.85261800     -2.89905500     -0.10353400
H           3.65982200     -2.83537700     -0.55989300
H           4.01401100      0.77015600      0.44762200
H           5.83289100      0.31806000     -1.07145100
H           5.00053000     -1.23708600     -1.67584800
