17
b3lypvdz=-197.618436348389 
C          -0.92585900     -1.20161000      0.43200300
C           0.54928200     -1.28528000      0.01233000
C           1.47512200     -0.16275100      0.53274200
C           1.10805500      1.22346900     -0.02399000
C           1.56058100     -0.13222900      2.06584900
H          -1.39946500     -0.26550000      0.09206000
H          -1.49869200     -2.03290100     -0.01104600
H          -1.04790300     -1.26610100      1.52646100
H           0.95755200     -2.25575500      0.35019600
H           0.60719900     -1.30058000     -1.09197700
H           2.48745100     -0.40413600      0.15552600
H           0.13279800      1.57179800      0.35731900
H           1.05920800      1.21641900     -1.12665200
H           1.86002100      1.97442900      0.27084800
H           1.82406300     -1.12288500      2.47421100
H           2.33102600      0.58171200      2.40071300
H           0.60646200      0.18050300      2.52310900
