12
b3lypvdz=-157.109384514358 
C           1.09324300      1.09793800     -0.09306300
C           2.81283600     -2.06079400     -0.24060800
C           1.46165000     -0.15212300      0.71724800
C           2.72320700     -0.81616400      0.23682300
H           0.20927400      1.59722900      0.33622200
H           0.86541500      0.83853900     -1.14032500
H           1.91995200      1.82942300     -0.09773500
H           1.93452100     -2.71195400     -0.30804300
H           3.76352700     -2.47944800     -0.58146000
H           0.62969700     -0.87796400      0.68961700
H           1.59351200      0.14241200      1.77641700
H           3.63216600     -0.19989400      0.28470700
