20
b3lypvdz=-236.90281508538 
C          -1.44519400      0.33980500      0.03866900
C          -0.90028800     -1.04601700      0.41155500
C           0.56811500     -1.29675400      0.02558200
C           1.59469500     -0.27212400      0.53586000
C          -2.95354600      0.46482900      0.26409200
C           1.65378200     -0.11397400      2.05759900
H          -0.92345500      1.11606700      0.62585100
H          -1.21120600      0.55671500     -1.02110000
H          -1.51998100     -1.81627800     -0.08347000
H          -1.04166900     -1.20648900      1.49746000
H           0.85790800     -2.30202000      0.38396900
H           0.64166500     -1.33526800     -1.07756900
H           1.39418100      0.71256100      0.07513400
H           2.59007200     -0.57628700      0.16464100
H          -3.51375600     -0.25002200     -0.36187300
H          -3.32001300      1.47493400      0.01662800
H          -3.22013800      0.25838200      1.31561100
H           1.86981300     -1.07528100      2.55594900
H           2.44337800      0.59667300      2.35200200
H           0.70483600      0.26624800      2.47161100
