23
b3lypvdz=-276.184980219624 
C          -1.37758900      0.30185300     -0.10684100
C          -0.84558200     -1.06829500      0.39296900
C           0.59475200     -1.33505400     -0.07588500
C          -2.83592400      0.60602300      0.31802400
C          -0.45602200      1.47110800      0.28308100
C          -1.74770300     -2.23835200     -0.02940800
C          -3.09712900      0.69487400      1.82679700
H          -1.38333900      0.24710700     -1.21431500
H          -0.83289600     -1.03926700      1.50051900
H           1.31286200     -0.60790000      0.33087300
H           0.92586700     -2.33742700      0.24352000
H           0.66729100     -1.29731900     -1.17859800
H          -3.51382600     -0.14734900     -0.11888800
H          -3.12480000      1.56335300     -0.15227100
H           0.51366700      1.42926500     -0.23479000
H          -0.25039100      1.49191300      1.36737400
H          -0.92559700      2.43348900      0.01755500
H          -2.75334300     -2.18284000      0.41410200
H          -1.30537700     -3.19806800      0.28618800
H          -1.86608200     -2.27478400     -1.12785900
H          -2.91333300     -0.26459500      2.33951100
H          -2.46327500      1.45228400      2.31628600
H          -4.14573200      0.97247900      2.02445800
