17
b3lypvdz=-197.618899798 
C          -1.44735200      0.22985500     -0.08870400
C          -0.88049500     -1.12217400      0.36323400
C           0.60119400     -1.28700700      0.01545400
C          -2.89253000      0.50804000      0.35381600
C          -3.02509100      0.86838800      1.83775900
H          -0.79629100      1.04174000      0.29159800
H          -1.38128500      0.28801000     -1.19133400
H          -1.46862300     -1.93304600     -0.10704800
H          -1.01770800     -1.24637500      1.45349000
H           1.21547600     -0.52148800      0.51968500
H           0.98890900     -2.27186700      0.32394200
H           0.77347000     -1.18038000     -1.07023000
H          -3.52537800     -0.37025700      0.12158700
H          -3.30048600      1.33566700     -0.25291100
H          -2.70425300      0.04636000      2.49976700
H          -2.40003400      1.74486500      2.08296200
H          -4.06492400      1.11937000      2.10493400
