14
b3lypvdz=-158.335295521281 
C          -1.75699600     -2.27807600     -0.12747100
C          -1.37696000      0.25990000     -0.09199900
C          -0.89361500     -1.11757400      0.37933600
C          -0.44836400      1.40456500      0.32902100
H          -2.80420800     -2.17422900      0.20716000
H          -1.38334000     -3.24588400      0.24618400
H          -1.75872300     -2.32148300     -1.23079200
H          -2.39183500      0.44443400      0.30753900
H          -1.47194300      0.25575800     -1.19406400
H           0.15056600     -1.26877000      0.04503500
H          -0.87244500     -1.13451600      1.48536500
H           0.56271100      1.27170800     -0.09331900
H          -0.34883800      1.45664200      1.42726400
H          -0.82951000      2.37852500     -0.02056000
