17
b3lypvdz=-197.620623200704 
C          -1.38428600      0.22690500     -0.09644200
C          -0.88653400     -1.07817900      0.52945100
C          -2.88814200      0.45123300      0.08625100
C          -3.41058100      1.71310300     -0.60801700
C          -4.90643100      1.95055900     -0.39597500
H          -0.82980900      1.08024400      0.33662900
H          -1.14734500      0.23661500     -1.17719200
H           0.19211700     -1.22802900      0.35637700
H          -1.41525200     -1.94908500      0.10547800
H          -1.05605700     -1.09260700      1.62068500
H          -3.43850100     -0.42895100     -0.29944100
H          -3.12279500      0.49723900      1.16774700
H          -3.19739000      1.64080900     -1.69124600
H          -2.84055800      2.59117200     -0.24973100
H          -5.50336400      1.08453900     -0.73194000
H          -5.13927000      2.11408400      0.67038300
H          -5.26380000      2.82984800     -0.95591700
