20
b3lypvdz=-236.902214435198 
C          -1.43027800      0.27979200     -0.11949400
C          -0.91152700     -1.08101100      0.38523500
C          -2.86591600      0.62748600      0.34056400
C          -0.43612100      1.39413300      0.24056600
C          -1.70139800     -2.30720900     -0.07851100
C          -3.07965400      0.75510600      1.85410300
H          -1.46581000      0.22027000     -1.22545500
H           0.13667300     -1.18480900      0.04875300
H          -0.86889900     -1.06908700      1.49060800
H          -3.56792500     -0.12687500     -0.05841500
H          -3.15389700      1.57785900     -0.14501300
H           0.54207400      1.22307400     -0.23866200
H          -0.26289300      1.45079800      1.32922000
H          -0.80195500      2.38096300     -0.09012700
H          -2.72949000     -2.31708300      0.32081900
H          -1.21460200     -3.23791400      0.25677900
H          -1.77305300     -2.34869200     -1.18005100
H          -2.88724300     -0.19267000      2.38531700
H          -2.42544800      1.51903000      2.30571700
H          -4.11933800      1.04654000      2.07734800
