9
b3lypvdz=-154.947858781446 
O          -7.07292500      0.74280900     -0.93496700
C          -5.25371700     -0.51236800     -0.05330600
C          -5.65086700      0.62828700     -0.96948400
H          -7.31890900      1.47887000     -1.51232400
H          -4.15990200     -0.65308000     -0.05499500
H          -5.73031300     -1.45107700     -0.38086000
H          -5.58295500     -0.31052800      0.98003600
H          -5.16843000      1.56919300     -0.62852800
H          -5.29728300      0.42309200     -2.00217200
