16
b3lypvdz=-234.463173304981 
C           1.59120600     -0.19125000      0.66453000
C           2.83418300     -0.85516300      0.10719400
C           1.60253000     -0.05704300      2.19599400
C           2.79391200     -2.11141700     -0.37901100
C           4.11046000     -0.12195700      0.09707200
C           4.29995200      1.16868800      0.41481800
H           0.71184400     -0.77778500      0.35363500
H           1.47082200      0.80934100      0.21213500
H           1.68870200     -1.04411700      2.67849000
H           2.44721700      0.55643700      2.54458500
H           0.67550100      0.41973000      2.55472300
H           1.86239500     -2.68195200     -0.41542600
H           3.69406700     -2.60032900     -0.76142400
H           4.97515800     -0.71238900     -0.22818800
H           5.29153200      1.62320800      0.35319100
H           3.48311900      1.82010000      0.73458300
