19
b3lypvdz=-273.768859027042 
C          -0.88259200     -1.31047200      0.60193600
C           0.48195500     -1.24005200     -0.07993600
C           1.44264500     -0.13097800      0.44393700
C           1.22719100      1.25302800     -0.17383400
C           1.31318500     -2.54569000      0.02141000
C           2.81014000     -0.73481600      0.18084100
C           2.73995600     -2.05133700     -0.05259900
H          -1.44320000     -0.36564400      0.49792000
H          -1.50513800     -2.10737000      0.16140900
H          -0.78086100     -1.52674600      1.67988300
H           0.33015100     -1.03576800     -1.15696400
H           1.30958600     -0.03813400      1.54315500
H           0.20559000      1.62268000      0.01609500
H           1.38534300      1.23134800     -1.26654100
H           1.92764400      1.99131800      0.25028200
H           1.05193100     -3.28299800     -0.75647100
H           1.13334900     -3.04852500      0.99389600
H           3.73096400     -0.14581400      0.21531500
H           3.59416200     -2.70843500     -0.23213200
