18
b3lypvdz=-235.685252433272 
C          -2.96838700      0.47880900      0.53104800
C          -1.70700100     -2.29274200     -0.23704700
C          -3.72506400     -0.71815200      0.00162300
C          -3.15707300     -1.89164000     -0.33002400
C          -5.22467900     -0.52856600     -0.12906700
C          -5.64372000      0.69084400     -0.96732800
H          -1.94569800      0.23364500      0.85107400
H          -2.90135300      1.27468500     -0.23221000
H          -3.49246700      0.91455900      1.40103300
H          -1.04297600     -1.46861200      0.06390300
H          -1.57374900     -3.11616500      0.48938500
H          -1.34619500     -2.67253800     -1.21096300
H          -3.81905700     -2.68185300     -0.70971800
H          -5.67576000     -1.43955100     -0.55870500
H          -5.65601900     -0.41749600      0.88672900
H          -6.74153400      0.73736900     -1.06632900
H          -5.31559400      1.63720900     -0.50578800
H          -5.21237400      0.64259400     -1.98221800
