19
b3lypvdz=-273.751679378959 
C           1.45815400     -0.29371000      0.26927400
C          -0.35756600      1.47849800      0.45634200
C           1.11771700      1.19357800      0.16594200
C           2.86926700     -0.69795800     -0.06348000
C           3.84259200      0.07535200     -0.58107100
C           5.17884700     -0.41753500     -0.89594900
C           6.15166900      0.31153700     -1.46798200
H           0.77344800     -0.87498400     -0.38092100
H           1.22471400     -0.65137400      1.29181700
H          -1.01425000      0.96424700     -0.26478700
H          -0.64284000      1.12911800      1.46415900
H          -0.57946300      2.55650500      0.40003300
H           1.37050800      1.56744400     -0.84197400
H           1.75181200      1.76185800      0.86985300
H           3.10878400     -1.75106500      0.13858700
H           3.64681600      1.13087000     -0.80053200
H           5.37844700     -1.46621600     -0.64166200
H           5.99380200      1.35979300     -1.74167000
H           7.13134000     -0.11865900     -1.68838000
