18
b3lypvdz=-235.679276475587 
C          -0.85041100     -1.01064500      0.16893400
C           0.64017200     -1.35563300      0.09698400
C           1.54279900     -0.21024900      0.55654300
C          -1.75383200     -2.13760100     -0.33572700
C          -3.84429000     -0.85861400      0.34397100
C          -3.23885000     -1.89382700     -0.24785600
H          -1.04641800     -0.09739300     -0.42268100
H          -1.11158500     -0.75855000      1.21312600
H           0.83717100     -2.25217700      0.71329700
H           0.90302000     -1.64023700     -0.93887900
H           1.38039600      0.69509900     -0.05257800
H           2.60905300     -0.48026200      0.47761000
H           1.34309900      0.06199400      1.60778600
H          -1.52299000     -3.07188700      0.21381600
H          -1.49814000     -2.36954600     -1.38830500
H          -3.28460700     -0.06013600      0.83673000
H          -4.93414500     -0.77346600      0.36085300
H          -3.86154100     -2.66206900     -0.72412100
