17
b3lypvdz=-197.619243963028 
C          -0.91549700     -1.12254600      0.37429500
C           0.57228400     -1.28371800      0.03710500
C           1.48530500     -0.17464400      0.57816000
C          -1.77918500     -2.25726000     -0.18039800
C           1.63988800     -0.15871200      2.10230100
H          -1.27310600     -0.15483100     -0.02677900
H          -1.04874700     -1.06234400      1.46994800
H           0.92731500     -2.26264100      0.41547700
H           0.68055700     -1.33044400     -1.06300400
H           1.10666800      0.80620700      0.23277000
H           2.48405300     -0.29130500      0.12073500
H          -2.84131200     -2.13239600      0.08854000
H          -1.44941100     -3.23463600      0.21375600
H          -1.71693400     -2.31084000     -1.28188600
H           2.01307400     -1.12991500      2.47355900
H           2.35873400      0.61197800      2.42454600
H           0.68761500      0.04714700      2.61877500
