21
b3lypvdz=-274.960969345471 
C          -1.38956800      0.29630000      0.07852100
C          -2.88976400      0.47879900      0.36155900
C          -3.67591900     -0.80087500      0.12297400
C          -3.41794900      1.60639500     -0.57968700
C          -3.24188000     -1.93880400     -0.42824200
C          -3.06710100      0.88691200      1.84113200
C          -4.91068800      1.94491900     -0.51268400
H          -0.95701200     -0.50576500      0.69697800
H          -0.84201500      1.22628900      0.30261800
H          -1.20198400      0.04754500     -0.97823400
H          -4.71993100     -0.75929600      0.45783000
H          -3.16731200      1.31795700     -1.61608800
H          -2.83180900      2.51880500     -0.36258700
H          -2.21681100     -2.07225900     -0.78357200
H          -3.91501700     -2.79182600     -0.55046500
H          -2.65534500      0.11330200      2.50884400
H          -2.53886400      1.83246400      2.05030300
H          -4.12711400      1.02609300      2.10752600
H          -5.54273000      1.09584100     -0.81880200
H          -5.22967500      2.25487300      0.49568300
H          -5.14111300      2.77803000     -1.19660900
