17
b3lypvdz=-197.618313785054 
C          -0.81672600     -1.19525500      0.38345500
C           0.65333900     -1.23215200     -0.06009400
C           1.49694500     -0.10266200      0.57355800
C           1.24886300     -2.62920700      0.17028400
C           1.61146000     -0.10128000      2.10184900
H          -1.26417800     -0.19837500      0.22680800
H          -1.41821500     -1.92203000     -0.18650400
H          -0.92639800     -1.45018200      1.45204500
H           0.67354500     -1.04495300     -1.15037600
H           1.07595300      0.86573400      0.24565400
H           2.51293900     -0.14911400      0.13970200
H           2.29912800     -2.68118300     -0.16487000
H           0.68391200     -3.39313900     -0.38883800
H           1.21845000     -2.91528200      1.23559400
H           2.02133100     -1.04897400      2.48907000
H           2.28701200      0.70229000      2.43745800
H           0.63824000      0.06506400      2.59220400
