18
b3lypvdz=-235.677468284578 
C          -2.97348500      0.48301300      0.44290900
C          -3.69775200     -0.81360600      0.16290600
C          -3.40030500      1.61106300     -0.53388700
C          -3.15640600     -1.89191200     -0.41117600
C          -3.13443100      0.89176000      1.91706800
C          -4.88771100      1.98078200     -0.54206700
H          -1.89823500      0.30687600      0.25710200
H          -4.75254500     -0.85054400      0.46534000
H          -3.10209200      1.30405400     -1.55197300
H          -2.80253600      2.50945000     -0.29326400
H          -2.10664500     -1.90716600     -0.72362300
H          -3.73880600     -2.79787400     -0.59713400
H          -2.75000000      0.10629800      2.58702000
H          -2.57964300      1.82039900      2.13187000
H          -4.19165500      1.06350300      2.18135300
H          -5.51720200      1.13626700     -0.86693900
H          -5.24618500      2.30398200      0.44902500
H          -5.07586500      2.81035700     -1.24293200
