17
b3lypvdz=-197.617885013843 
C          -1.45595400      0.24114400     -0.08497800
C          -0.92905400     -1.12576600      0.38911600
C          -2.88848800      0.60273500      0.34795600
C          -1.69138200     -2.34146100     -0.15296100
C          -3.03808400      0.85317100      1.85493800
H          -0.77164500      1.02752000      0.28492300
H          -1.39219300      0.27942100     -1.18943700
H           0.12928400     -1.20766000      0.07998300
H          -0.92557600     -1.16261000      1.49440200
H          -3.59622000     -0.18402000      0.02969900
H          -3.19538000      1.51509600     -0.19515900
H          -2.72554900     -2.38532500      0.22878800
H          -1.19359900     -3.27839200      0.14911000
H          -1.73770600     -2.32778300     -1.25653300
H          -2.82420600     -0.05288600      2.44758300
H          -2.34694000      1.64358900      2.19429500
H          -4.06261100      1.17672600      2.10517500
