15
b3lypvdz=-250.508481150185 
N           5.54591400      1.95176300      0.06418800
C           1.64543800     -0.04838600      0.63138100
C           2.91628400     -0.64371500      0.08614700
C           1.47826700     -0.35881900      2.13005100
C           4.11052200     -0.03615300     -0.06558600
C           4.41243400      1.37173500      0.21586400
H           6.23942600      1.26965000     -0.28286500
H           0.78897200     -0.47068800      0.07819700
H           1.60853500      1.04139800      0.47122100
H           2.86495500     -1.70989300     -0.16712100
H           1.54174700     -1.44275000      2.32344300
H           2.26665200      0.13147200      2.72194900
H           0.50250600     -0.00278100      2.49950600
H           4.95076300     -0.62679100     -0.45155300
H           3.58798400      2.00025700      0.58857800
