23
b3lypvdz=-276.185916413249 
C          -1.42120700      0.26858200     -0.14635500
C          -0.90381100     -1.08116000      0.39369700
C          -2.88510000      0.60071500      0.26660300
C          -0.42037300      1.37515800      0.22401100
C          -1.68691500     -2.32950500     -0.02000400
C          -3.41623800      1.84881200     -0.45366900
C          -3.09840300      0.72481400      1.78359600
H          -1.43310900      0.19229200     -1.25209500
H           0.14153700     -1.19077700      0.05171000
H          -0.84855300     -1.03497400      1.49718800
H          -3.50291700     -0.24914500     -0.08228800
H           0.57785600      1.14397000     -0.18344300
H          -0.31237200      1.47478300      1.31786500
H          -0.71464200      2.35820000     -0.17435300
H          -2.70548000     -2.34804700      0.40196400
H          -1.17690500     -3.24180200      0.33106700
H          -1.78094200     -2.40384600     -1.11791600
H          -4.49368900      1.98669200     -0.26141700
H          -3.27554100      1.77931400     -1.54607000
H          -2.90871800      2.76511200     -0.10807600
H          -2.81941100     -0.19168900      2.32786700
H          -2.51032200      1.55408200      2.21288100
H          -4.15794700      0.93082000      2.01053600
