20
b3lypvdz=-236.902993679096 
C          -1.42415500      0.24744800     -0.04692900
C          -0.86782900     -1.13590800      0.34985900
C           0.61101000     -1.23161100     -0.08626100
C          -2.87483900      0.52731000      0.37079500
C          -1.71493100     -2.29477400     -0.19673200
C           1.30249100     -2.57015500      0.20638900
H          -0.77160000      1.02104400      0.39840100
H          -1.33209100      0.36704500     -1.14383900
H          -0.89419500     -1.19967400      1.45700100
H           1.17144300     -0.42232100      0.41640100
H           0.68010700     -1.02011900     -1.17139800
H          -3.59070000     -0.11200200     -0.16978700
H          -3.14736200      1.57354600      0.15171900
H          -3.02254100      0.36118400      1.45280900
H          -2.75856100     -2.23275500      0.15132400
H          -1.32837200     -3.26858900      0.14262300
H          -1.72352400     -2.30001300     -1.30211300
H           2.37930900     -2.51201500     -0.02689800
H           0.88304700     -3.38997900     -0.39821800
H           1.20429200     -2.85086100      1.27025300
