18
b3lypvdz=-235.685334130998 
C          -2.99638500      0.54923500      0.37997600
C          -1.75691100     -2.26550800     -0.09579400
C          -3.77427800     -0.69094300     -0.02196300
C          -3.20918800     -1.89715500     -0.21352000
C          -2.92712800      0.76201600      1.90131100
C          -5.26291400     -0.49733700     -0.18285600
H          -1.97146400      0.50745900     -0.02193300
H          -3.47101900      1.43142200     -0.08496700
H          -1.11895900     -1.41685200      0.19128800
H          -1.60771400     -3.06027300      0.65708000
H          -1.36794100     -2.67299700     -1.04723400
H          -3.87775300     -2.72211100     -0.49201300
H          -2.41588800     -0.08170100      2.39269400
H          -2.36911500      1.68073300      2.14738700
H          -3.93048800      0.84786200      2.35012100
H          -5.48368100      0.23724700     -0.97913300
H          -5.77778900     -1.43732600     -0.43397400
H          -5.72268300     -0.08977300      0.73633000
