15
b3lypvdz=-196.39960642656 
C          -1.73887100     -2.24739500     -0.15234600
C          -3.78805200     -0.78155700      0.02414600
C          -3.21707200     -1.96947100     -0.21032500
C          -5.26778900     -0.50101100     -0.02352900
C          -5.63381700      0.63592800     -0.98953600
H          -1.16567200     -1.34823700      0.12643700
H          -1.51207800     -3.03746700      0.58602700
H          -1.36182600     -2.60617800     -1.12812700
H          -3.14556400      0.07453600      0.27649500
H          -3.85873900     -2.82302400     -0.47008100
H          -5.81369500     -1.41877200     -0.30528000
H          -5.61616100     -0.22560300      0.99210000
H          -6.72032100      0.82839900     -0.98293200
H          -5.12713200      1.57594600     -0.70904900
H          -5.33611000      0.38890500     -2.02300000
