21
b3lypvdz=-274.963024570593 
C          -1.64808400      0.03366500      0.21879900
C           1.52369800     -0.22899900      0.73511500
C          -0.62020900      1.16647900      0.14827500
C           0.79370600      0.71512700     -0.25174800
C           2.81082100     -0.71262000      0.11069900
C           1.81100100      0.44175700      2.09244900
C           3.12120600     -1.98351600     -0.15929200
H          -1.42257100     -0.68614300      1.02299600
H          -2.65981500      0.42996000      0.40565900
H          -1.67887900     -0.53511300     -0.72734000
H           0.88555200     -1.11377100      0.91098700
H          -0.59315100      1.70363000      1.11288900
H          -0.95998200      1.91065500     -0.59375000
H           0.73371500      0.20440400     -1.22982500
H           1.42632800      1.60833300     -0.41158600
H           3.53467800      0.07614600     -0.13987400
H           2.30162700     -0.26558600      2.78016100
H           2.48447600      1.30806500      1.96788700
H           0.88990300      0.80416500      2.57614500
H           2.43218400     -2.80284500      0.07312100
H           4.07469800     -2.25599000     -0.61936800
