19
b3lypvdz=-273.767223239648 
C           0.50410900     -1.42215300      0.08408700
C           1.40416900     -0.24566800      0.54954000
C          -0.38071700      1.58417300      0.27688900
C           1.05003700      1.13258800     -0.03008800
C           1.43177600     -2.66054100      0.03080400
C           2.79080100     -0.73654400      0.16897600
C           2.80446800     -2.04200200     -0.12718300
H          -0.37912300     -1.57333900      0.72214400
H           0.14021900     -1.20163500     -0.93610600
H           1.34988800     -0.16750000      1.65755000
H          -1.12334100      0.90193600     -0.16764600
H          -0.56711300      1.61207300      1.36456100
H          -0.57928300      2.59110000     -0.12475900
H           1.20776500      1.11011800     -1.12537000
H           1.76473700      1.87676400      0.36599400
H           1.16546000     -3.36876800     -0.77190800
H           1.38556300     -3.23791400      0.97565600
H           3.66567400     -0.08002300      0.16179200
H           3.69161100     -2.61626600     -0.40523200
