23
b3lypvdz=-276.187068215102 
C          -1.46713000      0.27770100     -0.02738000
C          -0.91491000     -1.09620400      0.40238200
C           0.56997600     -1.26766200      0.01174900
C           1.56711900     -0.22967300      0.55476300
C          -2.94249700      0.52503200      0.32041300
C          -1.72882700     -2.26454000     -0.17893900
C           1.63034300     -0.14155800      2.08385700
H          -0.86655700      1.07071800      0.45078300
H          -1.32220700      0.39841900     -1.11873900
H          -0.99390100     -1.16005800      1.50569100
H           0.89986600     -2.27071300      0.34262100
H           0.63990800     -1.27495200     -1.09343100
H           1.34203200      0.76823100      0.13726400
H           2.56987300     -0.49355500      0.17197400
H          -3.61896400     -0.13451300     -0.24571500
H          -3.22920600      1.56348800      0.08320300
H          -3.13265000      0.36178800      1.39609000
H          -2.76575900     -2.27160300      0.19293200
H          -1.27594200     -3.23079400      0.10118800
H          -1.76318300     -2.21750000     -1.28253200
H           1.84971700     -1.12675300      2.53172900
H           2.42195100      0.55498000      2.40565200
H           0.68234800      0.21982100      2.51624500
