15
b3lypvdz=-196.393488919255 
C          -3.71959700     -0.84191100      0.04887600
C          -3.21473300     -2.03791400     -0.26971400
C          -5.18340200     -0.49337200      0.02549100
C          -5.02776800      2.02662300     -0.55170200
C          -5.56389700      0.64514000     -0.94167200
H          -3.03010400     -0.04359300      0.35392900
H          -2.14035700     -2.23884400     -0.23423000
H          -3.86295700     -2.86686800     -0.57403200
H          -5.75667300     -1.39831400     -0.24258100
H          -5.50832600     -0.20590100      1.04571100
H          -3.92599600      2.07415500     -0.58996600
H          -5.33807400      2.29933600      0.47288700
H          -5.41402200      2.80458600     -1.23002900
H          -6.66668900      0.69052400     -0.99134400
H          -5.21620700      0.38115200     -1.95712500
