21
b3lypvdz=-274.96249886974 
C          -1.33691200      0.37073600     -0.04754600
C          -0.84116600     -1.04807200      0.24952900
C           0.65463200     -1.27815100     -0.02704300
C           1.63842800     -0.32078000      0.68726400
C           3.05670900     -0.69713300      0.32949100
C           1.46176400     -0.32916700      2.21525500
C           3.87164500      0.00424700     -0.46373700
H          -2.42727300      0.44754600      0.09990100
H          -0.86621300      1.11753800      0.61169200
H          -1.11698100      0.66447900     -1.08902400
H          -1.41230500     -1.76449500     -0.36706900
H          -1.07620700     -1.30869300      1.29655300
H           0.90689800     -2.31895000      0.25163800
H           0.83894700     -1.19856800     -1.11384700
H           1.45782400      0.70289700      0.31496700
H           3.41489800     -1.64168600      0.76277600
H           1.65162400     -1.33578000      2.62808500
H           2.16584600      0.36570800      2.69837500
H           0.44392400     -0.03257400      2.51421200
H           4.88222700     -0.34206100     -0.69653700
H           3.55249100      0.95006000     -0.91453600
