17
b3lypvdz=-197.619004414539 
C           0.70609700     -1.35342200     -0.09867700
C           1.50036200     -0.15603200      0.43885500
C          -0.46800900      1.51954800      0.38189400
C           0.98529600      1.22216400     -0.00468800
C           1.35642100     -2.70472100      0.20574100
H          -0.31336900     -1.34264600      0.32777400
H           0.57591000     -1.24304600     -1.19242100
H           2.55529800     -0.25783600      0.11935200
H           1.51209800     -0.20141300      1.54618400
H          -1.17196900      0.81966700     -0.09723100
H          -0.61875600      1.44034300      1.47360300
H          -0.76568300      2.53598200      0.07568100
H           1.10079400      1.31465000     -1.10216200
H           1.64244100      1.99702100      0.42919800
H           2.34909700     -2.78713400     -0.27067900
H           0.74299000     -3.54350200     -0.16180000
H           1.50128300     -2.84692300      1.29117600
