19
b3lypvdz=-273.779084355772 
C          -1.39580200      0.25114100     -0.05540300
C          -0.90531400     -1.11768200      0.43261700
C          -2.87947600      0.46855400      0.28513200
C          -1.73406500     -2.26209200     -0.17209600
C          -3.74646300     -0.74216700      0.00040400
C          -3.21365300     -1.95830100     -0.20480800
C          -5.23534800     -0.49984700     -0.02724900
H          -0.78721900      1.05706500      0.38938800
H          -1.25838800      0.31910300     -1.15091200
H           0.16164100     -1.25586200      0.18310200
H          -0.98237300     -1.15601200      1.53607600
H          -3.26652300      1.33597100     -0.27996700
H          -2.98695000      0.73803100      1.35574500
H          -1.55808600     -3.19040400      0.40211000
H          -1.38685800     -2.48097800     -1.20252000
H          -3.87988600     -2.80295100     -0.42071500
H          -5.50041100      0.24472400     -0.79996200
H          -5.79885800     -1.42305700     -0.23616900
H          -5.58876800     -0.09393500      0.93962700
