14
b3lypvdz=-158.336056616314 
C           1.06701500      1.19577800     -0.02371000
C           0.58744600     -1.29735200      0.01049200
C           1.49599000     -0.17263000      0.52664400
C           1.53988600     -0.15543500      2.05995200
H           0.03951300      1.44509300      0.29743300
H           1.08983300      1.21271100     -1.12696100
H           1.73346400      1.99669200      0.33769800
H          -0.45419600     -1.15459800      0.35093100
H           0.92585500     -2.28180000      0.37687600
H           0.58002600     -1.33408600     -1.09245300
H           2.52114400     -0.37739700      0.16151600
H           1.87183900     -1.12731400      2.46328700
H           2.23566500      0.61440200      2.43229400
H           0.54242100      0.06333800      2.48240100
