23
b3lypvdz=-276.1885654087 
C          -1.36072700      0.17692300     -0.22826800
C          -0.79568900     -1.15449400      0.28044900
C           0.73032500     -1.16163000      0.37149600
C          -2.88710000      0.28088600     -0.16353800
C          -3.42181300      1.56753200     -0.81134800
C          -4.86653500      1.94321300     -0.44478800
C          -5.91120900      0.84497200     -0.66027600
H          -0.92255900      1.00392800      0.36231200
H          -1.02071200      0.34619700     -1.26832300
H          -1.13647300     -1.97133100     -0.38218700
H          -1.22598500     -1.37974200      1.27428000
H           1.09236700     -0.40304600      1.08610300
H           1.11729500     -2.13790600      0.70641800
H           1.19276800     -0.93239100     -0.60458800
H          -3.34130500     -0.60202400     -0.64903600
H          -3.20401400      0.23480300      0.89644000
H          -3.32419300      1.48363800     -1.91081500
H          -2.76591200      2.40921100     -0.51941900
H          -4.89316400      2.25821600      0.61519400
H          -5.15484800      2.83447000     -1.03016000
H          -6.92414700      1.22267400     -0.44184800
H          -5.73549200     -0.02446800     -0.00581700
H          -5.91017700      0.47446900     -1.70058100
