12
b3lypvdz=-211.224381504137 
N           5.52379600      1.88307400      0.32734800
C           1.61632900     -0.21137400      0.59796900
C           2.87979600     -0.67369900     -0.06525600
C           4.06770800     -0.04121300     -0.14055800
C           4.39295900      1.28342000      0.40019600
H           6.19980400      1.28495500     -0.17629400
H           0.77209900     -0.26294800     -0.11191200
H           1.67222300      0.81124900      0.99695000
H           1.35590400     -0.88598500      1.43288800
H           2.81527100     -1.66233200     -0.53549500
H           4.88978000     -0.54526400     -0.66485400
H           3.58683000      1.82651700      0.91911700
