21
b3lypvdz=-274.960969777762 
C          -0.89185700     -1.10202400      0.30584400
C           0.60384800     -1.28151700      0.03136500
C           1.57135300     -0.21912100      0.64355600
C           1.23902900      1.19292700      0.13485600
C           2.97305000     -0.65777700      0.25153600
C           1.48996700     -0.23458300      2.18544000
C           3.82729300     -0.04655700     -0.57413500
H          -1.27030000     -0.14005000     -0.07507100
H          -1.46953500     -1.89392300     -0.19745500
H          -1.13132800     -1.15638600      1.38016100
H           0.91526500     -2.27674700      0.39766400
H           0.77167400     -1.29748700     -1.05998600
H           0.25119600      1.51920000      0.49450800
H           1.22768000      1.24455500     -0.96586300
H           1.97669300      1.92463000      0.50100100
H           3.27712400     -1.61127100      0.70470500
H           1.72136000     -1.23467200      2.58886000
H           2.21297800      0.47422100      2.61916600
H           0.48791200      0.05353200      2.54113300
H           4.80286200     -0.48693600     -0.79642700
H           3.59643600      0.90448600     -1.06035700
