23
b3lypvdz=-276.187076820416 
C          -1.44421400      0.25400400      0.04979700
C           1.64374600     -0.16867600      0.55820700
C          -2.91617500      0.62032400      0.28981000
C          -0.45077000      1.37669300      0.38286400
C           1.00311900      1.09548200     -0.03956000
C           1.81876700     -0.13419900      2.07793100
C          -3.28191300      0.80679300      1.76654600
H          -1.20269000     -0.65074900      0.63799500
H          -1.31633000     -0.03297400     -1.01127700
H           1.04207300     -1.05122800      0.27414200
H           2.62891200     -0.32347000      0.08331200
H          -3.55533800     -0.17111600     -0.14166200
H          -3.15978800      1.53992500     -0.27558800
H          -0.49479000      1.60516900      1.46266300
H          -0.78292800      2.29887900     -0.12970600
H           1.04658700      1.02709500     -1.14232800
H           1.62515000      1.96928900      0.23279600
H           2.28694800     -1.06039900      2.45038100
H           2.46590600      0.70508800      2.38836900
H           0.85719700     -0.01648300      2.60547500
H          -3.02522700     -0.09425600      2.35285400
H          -2.74629900      1.65315500      2.22686200
H          -4.36134500      0.99005200      1.89681800
