17
b3lypvdz=-197.619964002384 
C          -1.33164900      0.26404600     -0.09926800
C          -0.81397000     -1.11018400      0.36384200
C           0.62329700     -1.38996400     -0.09898700
C          -0.54053400      1.47755500      0.39406200
C          -1.76153000     -2.22422200     -0.09917200
H          -2.38120500      0.36248900      0.23513100
H          -1.36339400      0.27229500     -1.20658700
H          -0.82055900     -1.10888300      1.47317500
H           1.34601000     -0.67533800      0.32471800
H           0.94421100     -2.40073400      0.20550300
H           0.70324000     -1.33313400     -1.20072800
H           0.48355000      1.50036400     -0.01431100
H          -0.45685500      1.48884300      1.49530600
H          -1.03230000      2.41595100      0.08923700
H          -2.79186900     -2.05552900      0.25690700
H          -1.43546900     -3.20874600      0.27578000
H          -1.79557500     -2.28260900     -1.20260600
