21
b3lypvdz=-274.967253172804 
C          -0.80002300     -1.05029600      0.17909800
C           0.69932400     -1.26486300     -0.09379400
C          -1.70708800     -2.16125500     -0.36054200
C           1.26068800     -2.61132500      0.37871700
C          -3.80728800     -0.78967100      0.11871200
C          -3.19140400     -1.89787800     -0.31135300
C          -5.29502300     -0.57873900      0.12248300
H          -1.10009800     -0.08730200     -0.26926900
H          -0.96732800     -0.94511300      1.26755000
H           1.26228100     -0.44796400      0.39154700
H           0.88743400     -1.15567800     -1.17867200
H          -1.50809100     -3.10222800      0.18617500
H          -1.42823900     -2.38971800     -1.40978600
H           2.34944600     -2.66924900      0.21121900
H           0.80409700     -3.45540900     -0.16301600
H           1.07818900     -2.77238800      1.45651100
H          -3.20759100      0.04524600      0.50017100
H          -3.81703800     -2.72220700     -0.68276500
H          -5.58092300      0.27970700     -0.51188200
H          -5.83322200     -1.46502400     -0.25119900
H          -5.67170200     -0.34944800      1.13599500
