20
b3lypvdz=-236.902003721649 
C          -1.35523000      0.22699400     -0.04332600
C          -0.89921100     -1.12030400      0.53995600
C          -2.81723700      0.56743600      0.33209800
C          -0.40542800      1.39192300      0.30418400
C           1.05063500      1.21153000     -0.13787100
C          -3.10458900      0.76880000      1.82649000
H          -1.33915600      0.12068200     -1.14628200
H           0.06501800     -1.43777500      0.11246900
H          -1.63258000     -1.91279700      0.31305300
H          -0.77655800     -1.08400100      1.63645400
H          -3.47304800     -0.23540800     -0.05333800
H          -3.11299100      1.48038900     -0.21714400
H          -0.43142900      1.57757600      1.39360500
H          -0.81199000      2.30671800     -0.16580600
H           1.54604500      0.38431600      0.39569700
H           1.12471900      0.99771300     -1.21925900
H           1.63906300      2.12301100      0.06102000
H          -2.84701300     -0.12222000      2.42370800
H          -2.54107600      1.61667700      2.24920800
H          -4.17474300      0.97424100      1.99408300
