12
b3lypvdz=-157.114674548117 
C          -1.73692000     -2.25744400     -0.14761900
C          -5.25574200     -0.49154300     -0.04788300
C          -3.77790900     -0.77535600      0.00078600
C          -3.21477600     -1.97370600     -0.19588000
H          -1.15523500     -1.35221300      0.09146700
H          -1.50284600     -3.02337400      0.61376600
H          -1.37483500     -2.65160000     -1.11569100
H          -5.48999100      0.27434800     -0.80923100
H          -5.83741800     -1.39681700     -0.28684400
H          -5.61761300     -0.09736100      0.92026900
H          -3.12884900      0.08358900      0.22233600
H          -3.86386500     -2.83262600     -0.41747600
