19
b3lypvdz=-273.751059703133 
C          -0.91159300     -1.01151100      0.56042300
C           0.44838400     -1.31923500     -0.06752200
C           1.59552900     -0.42659500      0.43025800
C           2.91093300     -0.77444900     -0.21777900
C           3.94925900      0.05345000     -0.43685300
C           5.19766200     -0.37627600     -1.05533200
C           6.26288200      0.40618100     -1.29794400
H          -1.21541400      0.03207800      0.36721000
H          -1.69584900     -1.66665500      0.14814200
H          -0.89738500     -1.15808300      1.65495300
H           0.71434500     -2.37473800      0.13154500
H           0.37664100     -1.22314300     -1.16687700
H           1.35795200      0.63686700      0.23919800
H           1.67659800     -0.52650100      1.53168900
H           3.02248000     -1.82080400     -0.53553400
H           3.87958600      1.10744900     -0.13640400
H           5.24186700     -1.43240900     -1.35022600
H           6.27196000      1.46574400     -1.02287000
H           7.16206300      0.00633100     -1.77227800
