15
b3lypvdz=-196.394130648212 
C           1.61047700     -0.17582200      0.59444500
C           1.25748000      1.22187500      0.07509600
C           3.00639800     -0.64045200      0.24253900
C           1.38883700     -0.27080300      2.11493600
C           3.90782300     -0.00558100     -0.51247400
H           0.91424500     -0.89999900      0.12445100
H           0.21894000      1.47920400      0.34026200
H           1.34991300      1.29397600     -1.02060900
H           1.91405400      1.98672800      0.52297900
H           3.27841100     -1.61508300      0.67073900
H           1.61639700     -1.28276900      2.49026500
H           2.03979900      0.43781000      2.65299400
H           0.34356600     -0.03767900      2.37792000
H           4.88952500     -0.44654700     -0.70566400
H           3.70903500      0.96844100     -0.96737900
