16
b3lypvdz=-234.488834653462 
C          -1.38993800      0.25737100     -0.05000100
C          -0.91021400     -1.12138400      0.42755600
C          -2.86951400      0.49261700      0.30021900
C          -1.74933900     -2.26007900     -0.17715600
C          -3.72582000     -0.72199900      0.03308600
C          -3.22612900     -1.94625300     -0.18809400
H          -0.76797200      1.05311200      0.39424400
H          -1.25816500      0.32794000     -1.14594400
H           0.15412100     -1.26691000      0.17187500
H          -0.98140400     -1.16585800      1.53092700
H          -3.25951500      1.35331000     -0.27227600
H          -2.96824200      0.77423600      1.36816200
H          -1.57215700     -3.19278200      0.38910700
H          -1.41690400     -2.47350000     -1.21317300
H          -4.81278000     -0.57447600      0.02265700
H          -3.91012600     -2.77764600     -0.39578900
