17
b3lypvdz=-197.618919266223 
C          -0.93136900     -1.12280900      0.31001400
C           0.54035600     -1.26310500     -0.10472600
C           1.48692700     -0.18850400      0.45174500
C           1.13841000      1.25496800      0.07488200
C          -1.76762200     -2.35144400     -0.05204300
H          -1.37094100     -0.22649100     -0.16237100
H          -0.99153500     -0.94792600      1.40140900
H           0.90626300     -2.25130200      0.23172200
H           0.60506600     -1.27966500     -1.21043300
H           2.51124100     -0.41400600      0.10413000
H           1.51569100     -0.27756300      1.55445200
H           0.14434700      1.54957200      0.45064800
H           1.13657300      1.39982200     -1.01993000
H           1.86721900      1.96258800      0.50231400
H          -2.82102400     -2.23390700      0.25168100
H          -1.37754900     -3.25511400      0.44719700
H          -1.75125100     -2.54621500     -1.13879200
