5
b3lypvdz=-94.574584858118 
N           5.53658200      1.88755600      0.34648100
C           4.48140200      1.19563800      0.49596100
H           6.13071100      1.46692600     -0.38498600
H           4.22821500      0.27478400     -0.06516900
H           3.74579000      1.51409700      1.25321300
