11
b3lypvdz=-119.049838449087 
C          -5.25709800     -0.55081900     -0.04937900
C          -4.92777500      1.94190000     -0.53937900
C          -5.61592300      0.63496500     -0.95038700
H          -4.17145500     -0.75107200     -0.06737700
H          -5.77345700     -1.46936600     -0.37521700
H          -5.54659600     -0.35888200      0.99893000
H          -3.82805600      1.84873700     -0.58432700
H          -5.19901600      2.22514800      0.49292400
H          -5.22064800      2.77286300     -1.20242300
H          -6.71183200      0.78173600     -0.93830500
H          -5.34514300      0.39299000     -1.99485900
