17
b3lypvdz=-197.619731944013 
C           0.68830400     -1.30362500     -0.01305500
C           1.52674700     -0.13034700      0.53265000
C           1.00825900      1.21348700      0.00328500
C           1.32363200     -2.68687600      0.16153700
C           1.58050100     -0.11191400      2.06575300
H          -0.30562900     -1.28916200      0.47357400
H           0.50103000     -1.13267900     -1.08884400
H           2.56110300     -0.26460500      0.15701800
H          -0.04749100      1.36795000      0.29141400
H           1.06783200      1.26732100     -1.09688500
H           1.58951100      2.05511800      0.41454000
H           2.30374000     -2.73783500     -0.34429900
H           0.68862800     -3.47456000     -0.27563500
H           1.48460200     -2.94250600      1.22214400
H           1.94206000     -1.06415500      2.48582400
H           2.25347900      0.68113100      2.43051500
H           0.57869300      0.08486000      2.48946400
