15
b3lypvdz=-233.523764762065 
O          -7.03052300      0.77565600     -0.92820400
C          -3.36591200      1.81380200     -0.57514500
C          -5.34319000     -0.58572600     -0.00222800
C          -4.89349900      1.87981300     -0.53399300
C          -5.61466100      0.58490400     -0.93754600
H          -7.22454800      1.54989400     -1.47714400
H          -2.96160500      1.09719600      0.15747900
H          -2.99940700      1.50686200     -1.57093300
H          -2.92287500      2.79682800     -0.34765300
H          -4.28482500     -0.88842800     -0.03561700
H          -5.95928300     -1.44791200     -0.29916000
H          -5.60200900     -0.31735500      1.03633000
H          -5.24286200      2.16399900      0.47523800
H          -5.23578100      2.68094000     -1.21714400
H          -5.27751900      0.30222700     -1.95977800
