19
b3lypvdz=-273.775006868129 
C          -1.39147800      0.24486300     -0.07937400
C          -0.91056500     -1.12189100      0.42942200
C          -2.87131800      0.50820500      0.25809300
C          -1.74510100     -2.27437600     -0.15294400
C          -3.71683200     -0.72293400      0.00720600
C          -3.41042100      1.72912300     -0.50585800
C          -3.21887800     -1.95314400     -0.18404100
H          -0.76780600      1.04855000      0.34946200
H          -1.25734200      0.29466100     -1.17703000
H           0.15478400     -1.26990600      0.18003200
H          -0.98448700     -1.14251800      1.53300800
H          -2.94432000      0.74471300      1.34056500
H          -1.57701200     -3.19328700      0.43799200
H          -1.40481600     -2.51463600     -1.18032400
H          -4.80495100     -0.57966300     -0.01320800
H          -4.45182800      1.95519200     -0.21957100
H          -3.39027000      1.55572500     -1.59618300
H          -2.80255100      2.62484500     -0.29253200
H          -3.90520800     -2.78632300     -0.37721500
