20
b3lypvdz=-236.903704923642 
C          -1.41464300      0.27719900     -0.09957400
C          -0.85800800     -1.01996300      0.50101600
C           0.60256600     -1.34043900      0.14243300
C           1.60981200     -0.21752000      0.40624000
C          -2.92863600      0.42792100      0.07996500
C          -3.45954200      1.78740100     -0.38033000
H          -0.90958800      1.14356900      0.36608900
H          -1.16922100      0.33523000     -1.17835600
H          -1.48807800     -1.86894400      0.17499500
H          -0.96784300     -0.97669000      1.60207200
H           0.90934000     -2.23941800      0.70605000
H           0.65681700     -1.62248700     -0.92580500
H           1.42643900      0.65937800     -0.23606300
H           2.63849800     -0.56067800      0.20473000
H           1.57420800      0.13223800      1.45334200
H          -3.44277700     -0.38175500     -0.47029600
H          -3.18711300      0.27039000      1.14438100
H          -4.54499200      1.88376400     -0.21062800
H          -3.27270000      1.95174000     -1.45635500
H          -2.96574000      2.60986400      0.16459600
