20
b3lypvdz=-236.905946465022 
C          -1.39888900      0.24906600     -0.22234900
C          -0.78813900     -1.07336200      0.24892800
C           0.68755500     -1.24110700     -0.12898800
C          -2.86116300      0.44218700      0.19366000
C           1.27925500     -2.56879000      0.34923500
C          -3.46440300      1.74670900     -0.33214500
H          -0.79632300      1.09080300      0.17094100
H          -1.31986500      0.32013400     -1.32512300
H          -1.36863200     -1.91692500     -0.17203200
H          -0.89634400     -1.15991300      1.34816300
H           1.27206600     -0.40140700      0.29105400
H           0.79336400     -1.15510900     -1.22735800
H          -3.46172100     -0.41579800     -0.16249900
H          -2.92999700      0.41579000      1.29794700
H           2.32687700     -2.69146300      0.02898300
H           0.70884400     -3.42584500     -0.04806500
H           1.25388400     -2.64254500      1.45084900
H          -4.48106400      1.91537600      0.05844900
H          -3.52513100      1.74467100     -1.43451400
H          -2.84847600      2.61532700     -0.04113600
