14
b3lypvdz=-158.335381046479 
C          -1.76418800     -2.25329600     -0.14356200
C          -0.86170600     -1.14535700      0.41022200
C           0.60342800     -1.28541300     -0.02117600
C           1.51019000     -0.18772900      0.54560000
H          -2.80593600     -2.12955400      0.19689500
H          -1.41941000     -3.24839100      0.18776300
H          -1.76862600     -2.25041400     -1.24775700
H          -1.24456100     -0.16114400      0.08037200
H          -0.91728200     -1.14583300      1.51538500
H           0.98246400     -2.27479500      0.29771800
H           0.65962600     -1.27253000     -1.12623600
H           1.16767700      0.81306300      0.22913000
H           2.55067400     -0.30986400      0.20072400
H           1.51744900     -0.20644300      1.64962100
