20
b3lypvdz=-236.902713072862 
C          -1.42738500      0.23514600      0.00286200
C          -0.81296300     -1.12760200      0.36637500
C           0.66199900     -1.24119900     -0.10411300
C           1.54889100     -0.12846000      0.48145200
C          -1.69382900     -2.26327900     -0.18460200
C           1.26853700     -2.61915600      0.20846300
H          -2.48778200      0.28002500      0.30382800
H          -0.91411200      1.06883500      0.50548200
H          -1.37762800      0.41207800     -1.08681200
H          -0.81633400     -1.21203000      1.47221600
H           0.66482100     -1.11977700     -1.20719500
H           1.23494900      0.87126700      0.14392300
H           2.59885000     -0.25977600      0.16946000
H           1.52411100     -0.13668800      1.58676200
H          -2.74638800     -2.12238500      0.11425500
H          -1.38172900     -3.24941800      0.19233800
H          -1.65869600     -2.29547700     -1.28885500
H           2.33288400     -2.65194100     -0.08008400
H           0.75982400     -3.42768400     -0.33705600
H           1.20557900     -2.84557800      1.28860200
