16
b3lypvdz=-234.465549028809 
C           0.41564800     -1.20273200      0.06998800
C           1.62541400     -0.35396400      0.47603800
C           2.89767300     -0.75221400     -0.22872900
C           3.95899600      0.04526200     -0.45099600
C           5.19062300     -0.39739100     -1.09214300
C           6.27344200      0.36999600     -1.30445500
H          -0.49073900     -0.89133000      0.61303500
H           0.58696600     -2.27013600      0.29461300
H           0.20944000     -1.11732600     -1.01050400
H           1.41835500      0.71482600      0.28480100
H           1.77032900     -0.44333100      1.57091200
H           2.95859800     -1.79631300     -0.56637900
H           3.92272300      1.09313500     -0.12386500
H           5.21118900     -1.44410700     -1.42039500
H           6.30253900      1.41826200     -0.98988600
H           7.16680500     -0.02983700     -1.78953800
