13
b3lypvdz=-195.182469710875 
C           1.34116700     -2.67160600      0.09751200
C           2.90740000     -0.69305000      0.22145400
C           2.64517100     -1.96673100     -0.12560100
C           4.18881500     -0.02911300      0.01900800
C           4.45732700      1.23547200      0.38584100
H           0.60314700     -2.01607500      0.58614000
H           0.90693800     -3.03275400     -0.85248900
H           1.47732500     -3.56599400      0.73218000
H           2.11895600     -0.09736700      0.69989400
H           3.44258500     -2.55120300     -0.60380700
H           4.97409000     -0.62399100     -0.46393300
H           5.43765000      1.68547100      0.21375700
H           3.70042900      1.86074100      0.86954200
