18
b3lypvdz=-235.679450635833 
C          -1.31120400      0.21572700      0.01470200
C          -2.79571700      0.43125100      0.31154300
C          -0.45448100      1.46008400      0.27157600
C           1.03449700      1.22448500      0.01243800
C          -3.70292300     -0.75217900      0.09807000
C          -3.35329900     -1.96587500     -0.34089100
H          -0.93256700     -0.61902800      0.63222200
H          -1.18519500     -0.10190300     -1.03700600
H          -3.17821900      1.27657800     -0.29399700
H          -2.91652000      0.77171300      1.35949600
H          -0.59905700      1.79424700      1.31596900
H          -0.81658400      2.28938700     -0.36339700
H           1.42896100      0.41538600      0.65008000
H           1.21678500      0.93037200     -1.03606400
H           1.63158800      2.12825300      0.21642200
H          -4.75717600     -0.57149500      0.34614800
H          -2.32361700     -2.22116000     -0.60577200
H          -4.09827100     -2.75704300     -0.45964100
