15
b3lypvdz=-196.39715500008 
C          -2.90611000      0.54508500      0.40372700
C          -1.72702900     -2.34637000     -0.21859100
C          -3.66418100     -0.69090100     -0.00824200
C          -3.16738200     -1.91117300     -0.26241900
C          -3.09830000      0.88323800      1.89263300
H          -1.83006800      0.44163100      0.18493700
H          -3.26152500      1.39608000     -0.20724600
H          -1.04747700     -1.54986600      0.11923200
H          -1.60454600     -3.20252500      0.46841900
H          -1.38792600     -2.68614800     -1.21451200
H          -4.75368800     -0.56541200     -0.07598700
H          -3.88107300     -2.69928700     -0.53478500
H          -2.72455500      0.06754300      2.53339200
H          -2.55396100      1.80325300      2.16570800
H          -4.16398000      1.03595200      2.13523300
