13
b3lypd3vdz=-282.628504274709 
N           4.98147000      0.66669200     -0.21939700
C           2.97377100     -0.61303700      0.04580200
C           1.64427600     -0.82759900      0.11198900
N           1.01912800     -2.05710900      0.18087700
N           3.02825600      1.87937700     -0.13099100
C           3.58933800      0.72084900     -0.12010600
H           5.34892000     -0.12053400     -0.74581400
H           5.37447200      1.55547000     -0.51950100
H           3.65098200     -1.47029600      0.12231200
H           0.94966200      0.01696100      0.04724800
H           1.60462500     -2.83403800      0.47530800
H           0.11212300     -2.06640300      0.63617900
H           2.02567800      1.79726600      0.06789400
