14
b3lypd3vdz=-374.896492917462 
N           5.00482800      0.73815100      0.01865900
C           3.02938000     -0.67315200      0.09802700
C           1.63117100     -0.70028000      0.04032100
N           0.92315900     -1.88180800      0.02007800
N           0.89507500      0.42975100     -0.04131300
C           1.59345300      1.56574100     -0.07852400
N           2.91721800      1.72824500     -0.04688500
C           3.63663000      0.58702300      0.03816200
H           5.55269500     -0.00144700      0.44368600
H           5.31335300      1.67555900      0.25814600
H           3.61753500     -1.59079000      0.16576900
H           1.36854500     -2.68504200      0.45009600
H          -0.05503400     -1.76801200      0.26997800
H           1.00119100      2.48616100     -0.13760000
