9
b3lypd3vdz=-171.927305034379 
C           1.51592000      1.72052800     -0.00361400
N           2.78808700      1.77863900      0.00126000
C           3.57331800      0.59524300      0.00401400
C           3.17545000     -0.68583700      0.00308200
H           0.92011400      0.78741900     -0.00651700
H           0.95021100      2.66249100     -0.00539100
H           4.64707300      0.81155700      0.00771100
H           3.92017500     -1.48440700      0.00580000
H           2.12485300     -0.99113400     -0.00034300
