%pal nprocs 6 end
%maxcore 1000
! b3lyp TIGHTSCF nopop D3BJ
! cc-pvdz def2/J RIJCOSX
! Opt

%geom
maxiter 60
TolE 1e-4
TolRMSG 2e-3
TolMaxG 3e-3
TolRMSD 2e-2
TolMaxD 3e-2
end

*xyz 0 1
C 3.0743 -0.5998 -0.0104
C 1.6993 -0.6772 -0.0057
N 1.0605 -1.9162 -0.0134
N 0.9104 0.4032 0.0041
C 1.5376 1.5897 0.0104
N 2.8641 1.7852 0.0075
C 3.6095 0.6672 -0.0031
H 3.7 -1.4805 -0.032
H 1.3722 -2.5052 0.75
H 0.06 -1.7378 0.0356
H 0.9111 2.4749 0.0163
H 4.6841 0.8228 -0.0114
*

