10
b3lypd3vdz=-247.162532272474 
N          -3.99098500      1.68979400     -0.03066300
C          -2.44660700     -0.93719500     -0.05751100
O          -1.86371100     -2.00844200     -0.00847200
C          -3.88342200     -0.76467700      0.03929500
C          -4.53334800      0.43306500      0.01498600
H          -3.01916900      1.78456200     -0.30503800
H          -4.58727500      2.43713200     -0.36506200
H          -1.84963400      0.00830000     -0.19456500
H          -4.47565100     -1.67515500      0.15014300
H          -5.62579700      0.43731600      0.09268600
