10
b3lypd3vdz=-243.336556776072 
C           1.58712300     -0.68835700      0.25954700
N           1.07842500     -1.92606800      0.02948500
N           0.99026300      0.38876900     -0.10833800
C           1.67657100      1.60097600      0.03795300
N           2.88500900      1.89408200     -0.26487700
H           2.56038000     -0.68989500      0.78396200
H           1.45170200     -2.72971000      0.51445400
H           0.15301500     -1.99716000     -0.37882300
H           1.03616800      2.40902800      0.42652400
H           3.34994300      1.06323500     -0.66378600
