23
b3lypd3vdz=-529.844362263943 
N           3.70199400     -1.79556700      0.00811300
C           3.13429200     -0.66350800     -0.11106500
C           1.63870800     -0.57758800     -0.23845400
N           1.00095900     -1.76313400     -0.36310500
N           1.02794900      0.56749900     -0.22165900
N          -1.85177200      0.54219000     -0.01253000
C          -2.43246700     -0.66359900      0.13357600
O          -1.78195200     -1.71102000      0.28658800
C          -3.94314700     -0.76025000      0.12628300
C          -4.46230700     -2.16442200      0.25930800
C          -4.74998300      0.30644900      0.02626600
H           4.71900100     -1.70255000      0.11687500
H           3.64997500      0.31612500     -0.09697800
H           1.58567300     -2.56931600     -0.16534700
H           0.00270800     -1.80264500     -0.10767200
H           1.71299600      1.32471500     -0.14215500
H          -2.41472300      1.34039200     -0.26829000
H          -0.81611200      0.61624800     -0.05546400
H          -4.00127700     -2.82233400     -0.49210800
H          -5.55697000     -2.19548300      0.16518100
H          -4.16455500     -2.58560200      1.23353600
H          -4.37446200      1.32958300     -0.04094100
H          -5.83702900      0.19251700      0.01894100
