24
b3lypd3vdz=-513.79813046877 
C           3.09982600     -0.62295900      0.01295800
C           1.61161600     -0.55060400     -0.07196600
N           0.98030700     -1.75433500      0.04502800
N           0.93651100      0.53687100     -0.28342200
C           3.89386000      0.41586900      0.28710200
N          -1.94871700      0.54191500     -0.23601600
C          -2.50883300     -0.65954900      0.00983200
O          -1.84401900     -1.68181500      0.24605800
C          -4.01527800     -0.75942800      0.02234500
C          -4.54627000     -2.14841800     -0.19799800
C          -4.79299400      0.29788600      0.29573800
H           3.54038100     -1.61271600     -0.15031500
H           1.47607700     -2.48752500      0.53707800
H          -0.04728700     -1.74217600      0.15097200
H           1.56797500      1.31725800     -0.47234500
H           4.97970700      0.30396500      0.33419400
H           3.48523800      1.41186400      0.48275100
H          -2.52018600      1.28299700     -0.61803100
H          -0.90935600      0.61614200     -0.27077900
H          -4.31134000     -2.50064300     -1.21764500
H          -5.63400600     -2.19538800     -0.04302400
H          -4.04245200     -2.84679800      0.48711300
H          -4.37241400      1.28193600      0.51324700
H          -5.88154700      0.20215400      0.34082700
