8
b3lypd3vdz=-187.974860753825 
C           1.47756700      1.51202900      0.00091600
N           2.89999500      1.74865700      0.00127300
C           3.69127400      0.75197200      0.00017400
N           0.80932600      0.43046900      0.00265900
H           0.91732100      2.45708900     -0.00091600
H           4.77375000      0.93925100      0.00081000
H           3.37521900     -0.31133100     -0.00154500
H           1.43024800     -0.39493500      0.00463000
