%pal nprocs 6 end
%maxcore 1000
! b3lyp TIGHTSCF nopop D3BJ
! cc-pvdz def2/J RIJCOSX
! Opt

%geom
maxiter 60
TolE 1e-4
TolRMSG 2e-3
TolMaxG 3e-3
TolRMSD 2e-2
TolMaxD 3e-2
end

*xyz 0 1
N -1.7696 0.3602 0.012
C -2.458 -0.8092 0.008
O -1.8594 -1.879 -0.0021
C -3.9539 -0.7413 0.0172
C -4.633 -2.0825 0.0126
C -4.6616 0.4014 0.0278
H -2.1882 1.2749 0.0216
H -0.7608 0.295 0.0065
H -4.3563 -2.65 -0.8823
H -5.7245 -1.9903 0.0192
H -4.3465 -2.661 0.8973
H -4.2176 1.3878 0.031
H -5.7481 0.3764 0.0337
*

