9
b3lypd3vdz=-226.110423031915 
N           4.95643300      0.51870300      0.00282700
C           5.20696600     -0.82785900      0.00124200
N           4.09045600     -1.52884100     -0.00120100
C           3.07401500     -0.59684200     -0.00099100
C           3.58660500      0.68262400      0.00158600
H           5.65002300      1.25533900      0.00496200
H           6.21622500     -1.23481400      0.00195800
H           2.02869300     -0.89998200     -0.00271000
H           3.11778400      1.66217100      0.00262600
