12
b3lypd3vdz=-319.548718393484 
C           3.06466400     -0.58546400      0.04686200
C           1.65742200     -0.66209500      0.03627400
N           0.99113200     -1.86366900      0.01110200
N           0.90042700      0.44931200      0.00571300
C           1.55825300      1.61299300     -0.03230900
N           2.88031300      1.81198700     -0.03916100
C           3.61544800      0.68410200      0.00527300
H           3.68578400     -1.48201100      0.08377100
H           1.48186600     -2.66391400      0.39448500
H           0.01511500     -1.79990700      0.28565600
H           0.92948500      2.50977900     -0.05790500
H           4.70319000      0.81518700      0.00814000
