13
b3lypd3vdz=-286.463866121226 
     N     -3.77260700      1.56556700      0.00331400
     C     -2.42067000      1.79738100      0.00099400
     O     -1.93538900      2.91137600      0.00353200
     C     -3.90795400     -0.89917500     -0.00272700
     C     -4.73582400     -2.15141400     -0.00195500
     C     -4.44317100      0.33035400      0.00278600
     H     -4.33109500      2.41408300      0.00728300
     H     -4.52594300     -2.77420000     -0.89061000
     H     -5.81483600     -1.92331100      0.00519100
     H     -4.51545000     -2.77984600      0.88013400
     H     -5.53135600      0.44533700      0.00789400
     H     -1.80969200      0.86777900     -0.00173400
     H     -2.82101300     -1.03653000     -0.00840100
