21
b3lypd3vdz=-565.762740971722 
C           3.01889000     -0.63382800      0.58579600
C           1.80133300     -0.71211500      0.00113400
N           1.19887500     -1.85725300     -0.50104800
N           0.96140800      0.42670300     -0.13585600
C           1.42445900      1.56421000     -0.47338900
N          -3.81607200      1.67142100      0.22282800
C          -2.43973900      1.63819100      0.14724100
O          -1.74701400      2.64175100      0.22366700
N          -1.84910300      0.37536500      0.01800500
C          -2.44575600     -0.84935600      0.10117000
O          -1.84704300     -1.90778600     -0.01631500
H           3.61610300     -1.53099900      0.76320700
H           3.41427900      0.32092400      0.92850900
H           1.63430300     -2.71404500     -0.17045400
H           0.18194000     -1.88936900     -0.37837500
H           2.48360600      1.72310000     -0.73400800
H           0.72554900      2.41032400     -0.49320600
H          -4.35150400      0.96588100     -0.27028100
H          -4.18834200      2.61256300      0.14335200
H          -0.80170200      0.39318200     -0.04268700
H          -3.54096900     -0.82496300      0.30261100
