17
b3lypd3vdz=-397.140343549598 
C           3.09054300     -0.53911200     -0.00556700
C           1.59853300     -0.52758900     -0.07875800
N           1.02290100     -1.76216600     -0.05087100
N           0.87453500      0.54178400     -0.20122000
C           3.84680000      0.54167900      0.20469100
N          -1.97562900      0.36937000     -0.05463300
C          -2.48586100     -0.86406100      0.08720400
O          -1.83688400     -1.90445800      0.20579700
H           3.57217800     -1.51557000     -0.12864300
H           1.56959500     -2.51912600      0.33941300
H          -0.00052500     -1.82993800      0.06235700
H           1.46764200      1.36637100     -0.31221000
H           4.93502200      0.48337300      0.24907200
H           3.39789900      1.52892600      0.35125800
H          -2.61657400      1.14143000     -0.18889800
H          -0.94256600      0.51572700     -0.13346800
H          -3.60280900     -0.88984100      0.09967500
