13
b3lypd3vdz=-319.78024920917 
C           1.64433500     -0.70153500      0.04096800
N           1.00528100     -1.89406800     -0.08884100
N           1.04010800      0.43581100     -0.04170600
N          -1.84314400      0.38896100     -0.00694100
C          -2.43854200     -0.81113200      0.06339700
O          -1.86955800     -1.89912700      0.17529900
H           2.73637400     -0.79217800      0.18708500
H           1.48616700     -2.70009600      0.29382100
H          -0.02373100     -1.89308600      0.00391200
H           1.71255900      1.20172800      0.03009100
H          -2.42503900      1.20602000     -0.14538500
H          -0.80346100      0.47653300     -0.04200100
H          -3.55414900     -0.76593200      0.01960000
