23
b3lypd3vdz=-529.841636818778 
C           1.58906700     -0.72155000     -0.11714400
N           0.87799200     -1.84830900     -0.24599600
N           1.03898400      0.45962400     -0.08339500
C           1.88050800      1.58989800      0.02352600
N           3.14201200      1.71762400      0.19059200
N          -1.89883200      0.52049100      0.08876000
C          -2.50032400     -0.68246600      0.08049700
O          -1.86278500     -1.75095500      0.11976400
C          -4.00927600     -0.76615500      0.03243600
C          -4.54220100     -2.17135300      0.07692100
C          -4.80573800      0.30925000     -0.05261600
H           2.68447200     -0.85526100     -0.06770300
H           1.35982000     -2.72168000     -0.07704700
H          -0.15369600     -1.81416300     -0.10323100
H           1.29142300      2.51850100     -0.04845800
H           3.61461100      0.80499400      0.26222400
H          -2.45052400      1.35959900     -0.01671600
H          -0.86366200      0.57814100      0.02930600
H          -4.08216200     -2.78297000     -0.71400400
H          -5.63638300     -2.18647000     -0.02959900
H          -4.25909100     -2.65830000      1.02454100
H          -4.42508900      1.33198200     -0.08530000
H          -5.89262800      0.20303000     -0.09665900
