13
b3lypd3vdz=-286.475732408609 
N          -1.76638600      0.36781600      0.02091300
C          -2.46506100     -0.80696100     -0.00214200
O          -1.89210700     -1.89025600     -0.03121300
C          -3.97113400     -0.74033900      0.01264700
C          -4.63641600     -2.09060000      0.01797700
C          -4.66256200      0.40835500      0.01973100
H          -2.19398700      1.28087100      0.04979400
H          -0.75608700      0.30151500      0.01314600
H          -4.33499300     -2.67488000     -0.86693900
H          -5.73358800     -1.99675900      0.02863600
H          -4.31836600     -2.67567100      0.89661800
H          -4.19010600      1.39497300      0.01410400
H          -5.75670800      0.40433600      0.02922800
