18
b3lypd3vdz=-526.479505558745 
C           1.62424300     -0.73690500     -0.09569800
N           1.02867500     -1.93377600      0.00872800
N           0.97914400      0.38461700      0.01076600
C           1.69551200      1.59779300     -0.02853100
N           2.89984100      1.85873600      0.31154600
C          -2.50869000      1.62587500     -0.10965300
O          -1.97731900      2.69826700     -0.28688200
N          -1.81830500      0.43330100      0.03553400
C          -2.45121700     -0.76324000      0.20841100
O          -1.87933900     -1.84089600      0.30854400
H           2.71063700     -0.76446700     -0.28842300
H           1.54974700     -2.76684800     -0.22946000
H           0.00710000     -1.99487100      0.11694900
H           1.06433200      2.42720800     -0.37992700
H           3.36426700      1.01247500      0.67543400
H          -3.61652800      1.49677900     -0.04645900
H          -0.75554700      0.43498100     -0.00101200
H          -3.56165300     -0.68833100      0.25673400
