8
b3lypd3vdz=-133.872913316224 
C           3.05716200     -0.58813400      0.00672100
C           1.72317300     -0.73436600      0.01947400
N           1.02025000     -1.93837900     -0.01641400
H           3.72903300     -1.45178700      0.03290000
H           3.50487800      0.40370600     -0.05510900
H           1.07435300      0.14883800     -0.00718400
H           1.56954400     -2.75481500      0.24245800
H           0.13290700     -1.92566200      0.47815500
