19
b3lypd3vdz=-564.616238108905 
C           1.63583300     -0.72149600      0.05800300
N           1.06664200     -1.94032600     -0.14052600
N           0.95925500      0.37501300      0.05123000
N          -3.86372200      1.58694100     -0.03909800
C          -2.46203100      1.65286200     -0.04673500
O          -1.87741300      2.71736300     -0.10549000
N          -1.84127400      0.41921500      0.01778600
C          -2.47105100     -0.82141000      0.08088700
O          -1.81778700     -1.86768000      0.14503600
C          -3.92762900     -0.78315100      0.06355100
C          -4.56383200      0.41038400      0.00550900
H           2.73292500     -0.74896500      0.18489000
H           1.57696400     -2.73867600      0.21766500
H           0.03941800     -1.98389900     -0.06722300
H           1.56311300      1.19235700      0.15067400
H          -4.33351300      2.48339000     -0.08425800
H          -0.77920100      0.44259200      0.01293500
H          -4.46530900     -1.72772000      0.09753100
H          -5.65138800      0.50740500     -0.01066700
