7
b3lypd3vdz=-149.929427428947 
C           1.64707300     -0.68485400      0.02665300
N           1.02386700     -1.91768600     -0.00371600
N           0.98404200      0.40707700      0.00967800
H           2.75149800     -0.76334200      0.01843000
H           1.50753300     -2.68206500      0.45545500
H           0.02677600     -1.87856900      0.19895300
H           1.62891000      1.20153900     -0.04845400
