20
b3lypd3vdz=-490.548264723446 
N           3.75943800     -1.75861900      0.10236300
C           3.17529200     -0.64155900     -0.07078900
C           1.68077100     -0.58561800     -0.22231500
N           1.06119400     -1.78461800     -0.26789800
N           1.05820200      0.55095900     -0.30869600
N          -1.81669500      0.52838500     -0.07918900
C          -2.37713100     -0.67993600      0.14016700
O          -1.72287700     -1.71579200      0.33167400
C          -3.87167500     -0.76876100      0.17923600
C          -4.72725700      0.25356800      0.27513800
H           4.77456700     -1.64229300      0.20850700
H           3.67704600      0.34460600     -0.10301400
H           1.64842700     -2.56461100      0.01131000
H           0.05318600     -1.82384700     -0.05041500
H           1.73327600      1.32062500     -0.28358900
H          -2.40001400      1.28470500     -0.41063100
H          -0.78147500      0.61691700     -0.14735700
H          -4.22318000     -1.80363200      0.17213900
H          -4.38916600      1.29254300      0.32921100
H          -5.80652900      0.08707700      0.32424800
