8
b3lypd3vdz=-225.170131920465 
N          -3.84129400      1.59711300     -0.02415400
C          -2.45006800      1.66815500     -0.00089700
O          -1.83564000      2.71899000     -0.00625700
N          -1.83428400      0.41722300      0.02813400
H          -4.26107700      0.81340200      0.46728900
H          -4.26834200      2.48993700      0.20442800
H          -2.31551900     -0.32896800     -0.46614000
H          -0.84777600      0.47844700     -0.20760200
