13
b3lypd3vdz=-286.456914697011 
N          -3.98515000      1.67101900     -0.00242700
C          -2.44558700     -0.90391300     -0.06493100
O          -1.83186200     -1.95951200     -0.01979700
C          -3.89730500     -0.79809800     -0.02486100
C          -4.66252100     -2.09491500      0.04540900
C          -4.53532900      0.40924100     -0.03754400
H          -3.00703000      1.76729100     -0.25514600
H          -4.56291400      2.41440600     -0.37868500
H          -1.87534600      0.06147900     -0.14689100
H          -4.43607800     -2.73745000     -0.82209000
H          -5.74999000     -1.92303100      0.07996000
H          -4.37079600     -2.67560100      0.93680300
H          -5.63109300      0.41818700     -0.01160100
