8
b3lypd3vdz=-283.110659860322 
C          -2.46026500      1.63493700     -0.00262000
O          -1.89175000      2.69917000     -0.00417700
N          -1.80994300      0.41026400     -0.00137700
C          -2.45275600     -0.81832100      0.00028000
O          -1.87803200     -1.87923100      0.00097700
H          -3.57022000      1.52699000     -0.00091100
H          -0.78931000      0.41350600     -0.00214500
H          -3.56332300     -0.71691500      0.00077300
