10
b3lypd3vdz=-247.178836179022 
N          -1.73269300      0.37879000      0.04379600
C          -2.43385500     -0.79423900      0.01222000
O          -1.87281000     -1.88305300     -0.01624300
C          -3.92713100     -0.71244700      0.01538400
C          -4.67897500      0.39322900      0.02324100
H          -2.16329100      1.29147500      0.07178500
H          -0.72214900      0.31555200      0.04416800
H          -4.39846100     -1.69922400      0.00700200
H          -4.25840200      1.40404100      0.02785700
H          -5.77063400      0.32307700      0.02239000
