20
b3lypd3vdz=-490.545329294406 
C           1.62801100     -0.70482700     -0.02873200
N           0.93205800     -1.84232500     -0.14405500
N           1.06664800      0.47079500     -0.05028400
C           1.88765900      1.61575700      0.05722900
N           3.14385900      1.76629800      0.24386700
N          -1.85520900      0.50212600      0.00869300
C          -2.45358800     -0.70248600      0.04782200
O          -1.82797900     -1.77354500      0.14477900
C          -3.94689800     -0.77713000     -0.01890500
C          -4.80951300      0.24293900     -0.04810000
H           2.72172700     -0.82570500      0.06249200
H           1.41889700     -2.70841100      0.06008600
H          -0.10403200     -1.81770500     -0.03061700
H           1.28472200      2.53373000     -0.03555300
H           3.63021700      0.86181700      0.33147400
H          -2.41030200      1.32718900     -0.17284300
H          -0.81800200      0.56704900     -0.02879300
H          -4.29750100     -1.81233700     -0.03667900
H          -4.49074500      1.28989200     -0.01873500
H          -5.88732800      0.06778000     -0.09914600
