18
b3lypd3vdz=-489.396809902455 
C           3.07723400     -0.59841100      0.10347000
C           1.67334100     -0.65792700     -0.07996600
N           1.00211100     -1.83018600     -0.18432500
N           0.96602500      0.49284900     -0.19888300
C           1.65491600      1.63914700     -0.14853100
N           2.96637100      1.80504400      0.00184100
C           3.66097200      0.65446800      0.13249400
N          -1.94172900      0.39855400      0.04660600
C          -2.48327200     -0.82522300      0.17620100
O          -1.84715900     -1.87832400      0.21332000
H           3.67020600     -1.50618100      0.22366800
H           1.49463500     -2.66730000      0.09957300
H          -0.02154200     -1.84375300     -0.04452900
H           1.05635800      2.55186000     -0.24733500
H           4.74173900      0.76236200      0.27381600
H          -2.54168400      1.20913500     -0.03730600
H          -0.91693800      0.48103500     -0.10317500
H          -3.59558100     -0.82274900      0.26086000
