19
b3lypd3vdz=-510.434284404949 
C           3.12078000     -0.53948300     -0.12707200
C           1.63038000     -0.56375500     -0.12698000
N           1.07882300     -1.80964800     -0.10861100
N           0.87730400      0.49053900     -0.18256900
C           3.85121000      0.52090200      0.22964600
C          -2.67248500      1.58741500     -0.09465300
O          -2.23904600      2.69870500     -0.29864400
N          -1.89319500      0.44918000      0.02003400
C          -2.45282400     -0.77629900      0.24242100
O          -1.83097600     -1.82571800      0.33298200
H           3.61710100     -1.46726300     -0.43237300
H           1.64998900     -2.57013200      0.23747200
H           0.06741600     -1.89398400      0.04427800
H           1.43071100      1.33956600     -0.30589200
H           4.94273500      0.49475100      0.20550700
H           3.38196700      1.44990200      0.56526300
H          -3.76405400      1.37090900      0.01829500
H          -0.82948800      0.51246200     -0.08773700
H          -3.56284800     -0.75074800      0.34443400
