24
b3lypd3vdz=-513.770837463865 
C           2.98476500     -0.78909100      0.60867200
C           1.78503500     -0.69573600     -0.00707300
N           1.07302000     -1.73022000     -0.59598000
N           1.08518400      0.54076700     -0.11381700
C           1.71224900      1.60075500     -0.43249400
N          -1.90989600      0.55398100      0.03909800
C          -2.48063600     -0.67579200      0.02770400
O          -1.81357700     -1.71637800     -0.02908900
C          -3.98201500     -0.77351400      0.13009700
C          -4.52121200     -2.16616800     -0.04016700
C          -4.75697500      0.28609000      0.40341300
H           3.45905200     -1.76058600      0.75761100
H           3.48694000      0.09059500      1.00647200
H           1.45648900     -2.64527800     -0.37176100
H           0.06315200     -1.70376600     -0.39635700
H           2.78737000      1.61108600     -0.67923900
H           1.16358300      2.55162300     -0.46271400
H          -2.45799000      1.36650300     -0.20727700
H          -0.88491500      0.59985600     -0.04384400
H          -4.31625100     -2.54718600     -1.05416700
H          -5.60445800     -2.19977300      0.14728300
H          -4.00710400     -2.85258900      0.64900000
H          -4.34762200      1.28229500      0.58241400
H          -5.84218700      0.18242500      0.48591500
