18
b3lypd3vdz=-526.481153681639 
N           3.80977200     -1.69285600      0.05444100
C           3.17171300     -0.60486500     -0.10523900
C           1.67091500     -0.61802200     -0.14362300
N           1.10911000     -1.84996800     -0.17611800
N           0.98031700      0.47782700     -0.15119700
C          -2.59078600      1.59374700     -0.11218200
O          -2.15548500      2.68973000     -0.37996000
N          -1.81072700      0.46044400      0.06144500
C          -2.37698400     -0.74831800      0.35866300
O          -1.76349000     -1.79432900      0.51128800
H           4.82522100     -1.54046800      0.07871800
H           3.62730300      0.39834800     -0.20727000
H           1.74821300     -2.60079000      0.06892500
H           0.13167300     -1.92399100      0.12354300
H           1.58617500      1.30169500     -0.17149700
H          -3.68039100      1.38291300      0.02073500
H          -0.75634000      0.51793700     -0.06513900
H          -3.48630700     -0.70723300      0.45956700
