10
b3lypd3vdz=-247.170502470817 
     N     -3.78237700      1.56724000      0.00042800
     C     -2.41890700      1.74133600      0.00263900
     O     -1.88866900      2.83299600      0.00657500
     C     -4.01009700     -0.88860700     -0.00383300
     C     -4.49564800      0.36098100     -0.00222200
     H     -4.30722600      2.43707700      0.00151000
     H     -5.57730900      0.52186300     -0.00280900
     H     -1.84948400      0.78651000      0.00151300
     H     -2.94480600     -1.12698200     -0.00344300
     H     -4.70807700     -1.72581400     -0.00565600
