16
b3lypd3vdz=-413.18827042797 
N           3.80542900     -1.64790800      0.03136900
C           3.14766900     -0.57844900     -0.17597400
C           1.64738800     -0.59826700     -0.16061400
N           1.09081200     -1.81430900     -0.02310600
N           0.96059400      0.49902400     -0.28218000
N          -1.88199000      0.39163800      0.13576300
C          -2.38746400     -0.83833900      0.33246700
O          -1.73712000     -1.87952100      0.42322400
H           4.81778300     -1.47192000     -0.00116600
H           3.59356400      0.41634500     -0.36645900
H           1.72378500     -2.56989300      0.21107300
H           0.07718600     -1.90543800      0.13873900
H           1.58812700      1.29641300     -0.41471200
H          -2.52660900      1.15919800     -0.00876700
H          -0.86114600      0.52627200     -0.04555700
H          -3.50020700     -0.85024500      0.43050200
