20
b3lypd3vdz=-581.8331546035 
N           3.82064900     -1.63033800      0.03551100
C           3.14877800     -0.55147900      0.02454300
C           1.65077500     -0.59905300      0.00930900
N           1.11387600     -1.83070000     -0.05878900
N           0.93808300      0.48387100      0.06039000
N          -3.92820700      1.53723700     -0.01355700
C          -2.54655300      1.60160000     -0.11354300
O          -1.94922500      2.63678000     -0.34365500
N          -1.85795900      0.38480100      0.01664200
C          -2.41046300     -0.85816100     -0.00947300
O          -1.78081600     -1.90817400      0.05974500
H           4.83074400     -1.44289600      0.05661000
H           3.57591900      0.46915400      0.03877200
H           1.76122500     -2.60829900     -0.02140100
H           0.10287000     -1.95002600      0.05387200
H           1.52175500      1.32201600      0.09153600
H          -4.32642400      0.86848900      0.63764800
H          -4.34745700      2.46086300      0.03680400
H          -0.79942400      0.47328800      0.03017400
H          -3.51744500     -0.87397200     -0.11783700
