%pal nprocs 6 end
%maxcore 1000
! b3lyp TIGHTSCF nopop D3BJ
! cc-pvdz def2/J RIJCOSX
! Opt

%geom
maxiter 60
TolE 1e-4
TolRMSG 2e-3
TolMaxG 3e-3
TolRMSD 2e-2
TolMaxD 3e-2
end

*xyz 0 1
C 5.3616 -1.068 -0.3782
N 4.1123 -1.3734 -0.286
C 3.2459 -0.3322 -0.0675
C 1.9237 -0.5369 0.045
N 0.8936 0.3448 0.2612
C 1.1237 1.6043 0.3929
H 5.7616 -0.0423 -0.2931
H 6.0999 -1.8671 -0.5535
H 3.6562 0.6687 0.0133
H 1.5828 -1.5686 -0.0468
H 2.1131 2.0861 0.3495
H 0.2717 2.282 0.5654
*

