21
b3lypd3vdz=-565.785352803126 
C           3.10697700     -0.51271100     -0.05284300
C           1.61979500     -0.58106500     -0.12823200
N           1.10052500     -1.84185100     -0.13402600
N           0.83904600      0.44764900     -0.22411300
C           3.78063200      0.58157700      0.31372600
N          -3.95929600      1.57053700      0.04553700
C          -2.58589400      1.60004900     -0.13531500
O          -1.97956000      2.61993600     -0.41096700
N          -1.91747500      0.37299500     -0.02739900
C          -2.48248500     -0.86255300      0.02473500
O          -1.85000500     -1.91121400      0.08627400
H           3.64824300     -1.43008500     -0.30885800
H           1.66287400     -2.58958200      0.25081000
H           0.08180900     -1.94520500     -0.06166000
H           1.36080300      1.31788000     -0.33233700
H           4.87191800      0.59693800      0.34938600
H           3.25979500      1.49965700      0.60003800
H          -4.34419300      0.90646400      0.70857000
H          -4.35862500      2.50162000      0.11024100
H          -0.85461600      0.42368500     -0.12211800
H          -3.59577000     -0.87312300     -0.00524800
