5
b3lypd3vdz=-94.577496224513 
C           5.16742500     -0.82897900      0.00090200
N           4.11778300     -1.54467200     -0.00097100
H           5.19243100      0.27847400      0.00290900
H           6.14769400     -1.33289900      0.00116100
H           3.28126600     -0.94082300     -0.00060100
