49
b3lypvdz=-890.785201128703 
C          -0.43742600      0.82706200      0.47693100
C           0.42946800     -0.42591200      0.13657500
C          -1.73505300      0.73097600     -0.33834900
C           1.84345500     -0.37983300      0.83403700
C          -2.57124900     -0.53714500     -0.03499800
C          -3.74196000     -0.29834100     -1.01150500
C           1.71789800     -0.42269500      2.37750800
C          -3.10856700     -0.60133700      1.41149600
O           5.12947100     -0.05128000     -1.82848800
C           0.31079600      2.14804000      0.21218800
C          -0.35603400     -1.73647400      0.37853000
C          -2.76863500      1.87916900     -0.31822200
C           1.73520100      2.18491400      0.81271500
C           2.76314800     -1.56420000      0.43644600
C          -1.72102400     -1.77947600     -0.33737200
C          -4.07660700      1.21126400     -0.84245800
C           3.37584200     -1.46426200     -0.96217300
O          -4.81864900     -1.18833100     -0.75114200
C           4.13150100     -0.15409700     -1.13050900
C           3.52931800      1.01067800     -0.45186500
C           2.47326700      0.94157600      0.39065100
H          -5.51265400     -1.00889200     -1.40195700
H          -0.69809400      0.79294400      1.54996700
H           0.62752800     -0.36579500     -0.95112900
H          -1.41333100      0.62969500     -1.39458100
H           0.39203500      2.30362600     -0.87949100
H          -0.27577100      2.99271500      0.61084500
H           0.23921200     -2.59375900      0.02786700
H          -0.50138600     -1.88805300      1.46170700
H          -2.90966100      2.27145400      0.70255900
H          -2.45216600      2.72850400     -0.94234000
H           2.26841400      3.08051600      0.45785200
H           1.67474700      2.25481800      1.91259400
H           3.59231000     -1.59788700      1.16481800
H           2.22097500     -2.51397100      0.55455500
H           1.41507800     -1.42829200      2.70994100
H           2.68972700     -0.20024900      2.84688500
H           0.98308400      0.28759300      2.77986800
H          -2.26534300     -2.69414600     -0.04685500
H          -1.55318200     -1.84308200     -1.42824100
H          -3.35839100     -0.47456100     -2.03761400
H          -3.55113700      0.34999500      1.74565100
H          -3.89684200     -1.36599700      1.47205000
H          -2.32024800     -0.86534100      2.13065400
H          -4.41992400      1.65933900     -1.78845700
H          -4.90257700      1.31410300     -0.12027400
H           3.95423700      1.97871700     -0.73778500
H           4.06715200     -2.29439900     -1.17148000
H           2.59294700     -1.49829300     -1.74340300
