19
b3lypvdz=-252.939748426195 
N          -3.93508800      1.10942700      0.85462200
C          -1.82290700      0.05471000      0.27993000
C          -3.22368200     -0.17822600      0.86639900
C          -0.87046400     -1.14274300      0.34852800
C          -3.99406700     -1.31213500      0.17490700
C           0.57001600     -0.77547700     -0.01574700
H          -4.15476400      1.36183300     -0.11382800
H          -4.84441100      0.99938800      1.31079100
H          -1.93213700      0.38360000     -0.77353700
H          -1.38531300      0.91176700      0.81969100
H          -3.09886500     -0.45320300      1.93145700
H          -1.22590600     -1.94604800     -0.32034000
H          -0.88918100     -1.56777800      1.36959200
H          -4.11565600     -1.10606600     -0.90437800
H          -3.48464800     -2.28467900      0.27921100
H          -5.00126500     -1.41609400      0.61222600
H           0.97513500     -0.01829400      0.67644800
H           1.23429400     -1.65441800      0.02079700
H           0.63170900     -0.34796400     -1.03206900
