19
b3lypvdz=-252.936058702193 
N          -3.96430400      1.23795400      0.90565500
C          -1.81873700      0.16852600      0.33336100
C          -3.26478200     -0.04595500      0.78401300
C          -1.02590500     -1.13541000      0.18756100
C           0.42899900     -0.94875100     -0.27211200
C           1.34999600     -0.32704900      0.78371800
H          -4.13051200      1.62386400     -0.02745200
H          -4.89389100      1.08573600      1.30277200
H          -1.82332000      0.69668400     -0.64042100
H          -1.33381700      0.85458900      1.04845400
H          -3.75679200     -0.76802500      0.09477800
H          -3.26591800     -0.52374100      1.78056300
H          -1.55007500     -1.78986200     -0.53303100
H          -1.03265300     -1.68227700      1.15040800
H           0.83862200     -1.93111400     -0.56782900
H           0.44317100     -0.32825100     -1.18748700
H           2.37971800     -0.22866500      0.40110700
H           1.01350700      0.67758400      1.08793100
H           1.38979400     -0.95143600      1.69300900
