13
b3lypvdz=-174.370498878203 
C          -3.63425900     -1.41649800      0.41460400
N          -3.94471700      1.09869000      0.32495800
C          -1.76466700      0.19676900      0.95099100
C          -3.27564000     -0.03355500      0.98385600
H          -3.32438300     -1.49421000     -0.64419300
H          -3.13197600     -2.22746600      0.96899400
H          -4.72167300     -1.59839000      0.46647600
H          -3.68502800      1.10937200     -0.66711300
H          -4.95745400      0.95033600      0.33477000
H          -1.38459100      0.15264700     -0.08634400
H          -1.22874900     -0.56988000      1.53278400
H          -1.51315400      1.18613500      1.36319000
H          -3.60220900     -0.00404900      2.04122600
