16
b3lypvdz=-594.563049469819 
S          -2.32956600     -1.83425400     -0.77926700
C          -1.76543600      0.19032000      0.91873400
C          -3.30036600     -0.03554400      1.01655600
C          -1.07890500     -1.06973700      0.35037600
C          -3.64698300     -1.42498500      0.43331300
C           0.24256000     -0.79108700     -0.36181800
H          -1.55427200      1.03675000      0.24489800
H          -1.32911400      0.44728000      1.89916500
H          -3.82961200      0.74453400      0.44909800
H          -3.65701200      0.03381600      2.05789300
H          -0.90407900     -1.79387200      1.16669400
H          -3.66203600     -2.19688800      1.22120700
H          -4.62143400     -1.44405400     -0.07710000
H           0.96689800     -0.34722700      0.34267100
H           0.68828100     -1.71348800     -0.76701300
H           0.09967600     -0.08396300     -1.19600900
