12
b3lypvdz=-248.381862189303 
O          -3.26314700      2.76405000     -1.16527700
N          -3.77638700      1.05435900      0.26732200
C          -3.37653000     -0.08418200      1.07774400
C          -3.63625400     -1.44126700      0.41627100
C          -2.92240700      1.86196200     -0.42428500
H          -4.76454000      1.21622500      0.08661300
H          -2.30035000      0.03195300      1.28802800
H          -3.89551600     -0.03403500      2.05037600
H          -3.08876600     -1.52561700     -0.53613900
H          -3.30956200     -2.26124800      1.07736200
H          -4.70965800     -1.58470300      0.20519900
H          -1.85108200      1.60600400     -0.22031300
