15
b3lypvdz=-287.667118647605 
O          -3.22181100      2.60241900     -1.38856700
N          -1.87326800      1.34070200     -0.03314200
C          -1.68869900      0.26817200      0.92997200
C          -1.08389600     -1.01134700      0.33490800
C           0.33865800     -0.82583900     -0.20088100
C          -3.07449500      1.74069900     -0.54359300
H          -1.05974900      1.80840400     -0.42381800
H          -2.67727500      0.04284800      1.36351500
H          -1.05717600      0.62881800      1.76207600
H          -1.74711200     -1.37800700     -0.46762100
H          -1.09092700     -1.78296400      1.12644100
H           1.01875800     -0.46711300      0.59097900
H           0.74937500     -1.77035300     -0.59125300
H           0.36900200     -0.09474500     -1.02647500
H          -3.92448400      1.18270400     -0.07544200
