18
b3lypvdz=-649.884129528677 
S          -2.34800400     -1.80734000     -0.81526300
N          -1.66682400      1.44925400      0.04742000
C          -1.80733200      0.24624600      0.87065000
C          -3.31795100     -0.08082900      1.04621500
C          -1.10934400     -1.03979600      0.32438000
C          -3.64404100     -1.46575400      0.44369600
C           0.24071500     -0.81740100     -0.35184900
H          -1.97701300      1.23212500     -0.90542400
H          -0.68100200      1.70726100     -0.03213300
H          -1.35648600      0.48402100      1.85113900
H          -3.89150100      0.70490900      0.53243200
H          -3.61716700     -0.04571600      2.10679600
H          -0.97377500     -1.74492300      1.16552900
H          -3.61069100     -2.25981100      1.20852800
H          -4.63206600     -1.50030200     -0.03840100
H           0.94702800     -0.34037000      0.35049300
H           0.68389000     -1.77190600     -0.67614100
H           0.14956500     -0.17096700     -1.23886600
