17
b3lypvdz=-197.619127235821 
C          -1.87037900      0.06896300      0.47921400
C          -3.19855800     -0.29414200      1.16038800
C          -0.88779200     -1.10083500      0.33235000
C          -4.07284800     -1.28813700      0.38974500
C           0.50124900     -0.66717900     -0.14409200
H          -2.07211700      0.51133800     -0.51598100
H          -1.38396600      0.86749800      1.07000000
H          -3.77367700      0.63348500      1.32978400
H          -2.97677600     -0.70580400      2.16352600
H          -1.29843200     -1.85156100     -0.36600600
H          -0.79314700     -1.61613500      1.30714700
H          -4.34333500     -0.89650800     -0.60673300
H          -3.56261500     -2.25431400      0.24171500
H          -5.01213300     -1.49316800      0.92910600
H           0.96932700      0.02682700      0.57525100
H           1.17610200     -1.53052400     -0.26287200
H           0.45129700     -0.14520600     -1.11554000
