13
b3lypvdz=-646.524012906709 
S          -2.27297000     -1.82760600     -0.86284600
O          -3.07887600      2.73237400     -1.24837800
N          -1.81563500      1.36436800      0.08275500
C          -1.68547700      0.25549600      1.00225200
C          -1.15030100     -1.03814100      0.36794600
C          -2.99149100      1.83372900     -0.43581800
H          -3.19567800     -2.25981800      0.03779100
H          -0.97629000      1.79150500     -0.30168900
H          -2.67744100      0.07108400      1.44738100
H          -1.01429500      0.53928300      1.83381200
H          -0.22586800     -0.82859700     -0.19457600
H          -0.89442000     -1.76707700      1.15239300
H          -3.87605800      1.30360100     -0.00372500
