18
b3lypvdz=-595.763549243914 
S          -2.34663500     -1.72908300     -0.78094100
C          -1.04882600     -1.06380900      0.35944600
C           0.25771600     -0.85784300     -0.40710800
C           1.40629400     -0.39744500      0.49994700
C           2.73523400     -0.22566300     -0.24444600
C           3.90186500      0.15513800      0.67168700
H          -3.35706800     -1.75939700      0.12804100
H          -1.40045100     -0.11064300      0.78629100
H          -0.89920500     -1.77657500      1.18620900
H           0.54194500     -1.80310200     -0.90513100
H           0.09794900     -0.11795900     -1.21203700
H           1.13279200      0.55702400      0.98957100
H           1.54068600     -1.13238200      1.31614200
H           2.97738500     -1.16771100     -0.77094300
H           2.61521700      0.53957200     -1.03391500
H           4.84166500      0.24817900      0.10321300
H           4.05963600     -0.60571600      1.45522100
H           3.72130000      1.11831600      1.18045400
