10
b3lypvdz=-135.081221154666 
N          -3.95264300      1.11577100      0.31745100
C          -1.76149500      0.19101600      0.94380600
C          -3.27316700     -0.00701000      0.97604600
H          -3.70140000      1.12409800     -0.67569200
H          -4.96372900      0.96206900      0.33567500
H          -1.37697200      0.15648500     -0.09136000
H          -1.24094900     -0.59262900      1.51761700
H          -1.49285800      1.17175300      1.36965200
H          -3.51914800     -1.00616600      0.55010600
H          -3.61323900     -0.02428700      2.02729800
