8
b3lypvdz=-79.764197833027 
C          -1.79279100      0.21953300      0.92792600
C          -3.29900900     -0.04231400      1.02687200
H          -1.53139000      0.69822700     -0.03142500
H          -1.21885700     -0.71937600      1.00109800
H          -1.44547300      0.88611900      1.73492500
H          -3.87294500      0.89659400      0.95368300
H          -3.64632200     -0.70891100      0.21988100
H          -3.56041300     -0.52097200      1.98624100
