8
b3lypvdz=-225.162684200704 
O          -3.16838500      2.66594900     -1.16859700
N          -3.95632900      1.09710400      0.31443200
C          -2.94724500      1.79933700     -0.34198400
N          -1.66432400      1.41338600      0.04253100
H          -3.75515700      0.13149800      0.55884800
H          -4.85563600      1.21797100     -0.14310600
H          -1.55080900      1.10173600      1.00313200
H          -0.95731500      2.08001900     -0.25315500
