16
b3lypvdz=-213.655626532545 
N          -1.78989600      1.42354400     -0.07207800
C          -1.81314900      0.22528600      0.77849200
C          -3.26460300     -0.06520700      1.17284400
C          -1.13626700     -1.02616500      0.17592900
C           0.34054600     -0.83379700     -0.18001000
H          -2.25328900      1.21304300     -0.96257900
H          -0.82667400      1.65852600     -0.32104600
H          -1.25746100      0.49622900      1.69824500
H          -3.73412100      0.83407500      1.59966400
H          -3.85640600     -0.36829600      0.28924000
H          -3.32930200     -0.88393800      1.90770300
H          -1.70342700     -1.33656900     -0.72326900
H          -1.23471600     -1.85724500      0.89864900
H           0.92873200     -0.52628100      0.70280100
H           0.78937700     -1.76168500     -0.57048500
H           0.47855700     -0.05802100     -0.95230000
