9
b3lypvdz=-209.092843263931 
O          -3.09739400      2.78194900     -1.20159100
C          -2.99231400      1.90943400     -0.36168400
N          -1.82141900      1.31901600      0.01280200
C          -1.72281100      0.17363200      0.89854600
H          -3.85844600      1.52069100      0.23453800
H          -1.00845500      1.59669400     -0.53176600
H          -2.58904400      0.16682900      1.57895300
H          -1.69839800     -0.79128300      0.35837500
H          -0.81611900      0.24433700      1.52062600
