12
b3lypvdz=-248.38184884306 
O          -3.04812900      2.75039700     -1.22421300
N          -1.81284500      1.34903900      0.10229100
C          -1.70619200      0.20564500      0.99293500
C          -1.09223300     -1.02929800      0.32753500
C          -2.97156000      1.82695100     -0.43669400
H          -0.96391000      1.80118600     -0.22927000
H          -2.72337100     -0.02605900      1.35058400
H          -1.11866200      0.48837400      1.88456300
H          -1.69042900     -1.34381300     -0.54222500
H          -0.06665800     -0.82553100     -0.02470100
H          -1.04597400     -1.86849700      1.04126200
H          -3.86463400      1.26880700     -0.05616800
