7
b3lypvdz=-153.749746825701 
O           5.36786700     -0.19967300     -1.27375000
C           3.92196900      0.12445400      0.62975900
C           5.22698200      0.14978900     -0.12533600
H           3.11326600     -0.25323300     -0.01196500
H           4.02317700     -0.51060200      1.52730600
H           3.68012600      1.14022200      0.99056100
H           6.10201300      0.53244200      0.46782400
