16
b3lypvdz=-271.607381535971 
O           5.41768500     -0.10266400     -1.26584100
C           0.22357700     -0.78306600     -0.35270800
C           1.42254600     -0.41002700      0.52197100
C           2.73583400     -0.30588500     -0.25900200
C           3.91513300      0.12335200      0.61153500
C           5.24151900      0.19723100     -0.10698300
H          -0.70539400     -0.82247800      0.23910800
H           0.36029800     -1.76891800     -0.82989800
H           0.07418700     -0.04726900     -1.16070100
H           1.21972400      0.55355600      1.02634400
H           1.53814300     -1.15239400      1.33407300
H           2.97288300     -1.27184400     -0.73853700
H           2.62194000      0.41287000     -1.08956500
H           4.05654100     -0.56295700      1.47114300
H           3.73996700      1.11221300      1.08091300
H           6.09371800      0.56167800      0.52824800
