9
b3lypvdz=-477.904215905387 
S          -2.31225000     -1.73691000     -0.68935600
C          -0.98059900     -1.02874800      0.34215700
C          -3.73427500     -1.44158400      0.41966600
H          -1.15076100      0.04382000      0.53522900
H          -0.04254700     -1.14369200     -0.22166900
H          -0.89101100     -1.56696600      1.29984800
H          -3.89213800     -0.36360100      0.58988100
H          -3.59982000     -1.95409200      1.38627000
H          -4.62369800     -1.85722700     -0.07802600
