22
b3lypvdz=-292.223300794347 
N          -3.81854700      1.13946200      0.92951900
C          -1.80358000      0.02635400      0.14929900
C          -3.13783600     -0.16410400      0.88531900
C          -0.89614300     -1.21097100      0.11616000
C          -3.99752000     -1.29610200      0.30225500
C           0.56530300     -0.89739200     -0.24860800
C           1.34262900     -0.21727500      0.88449600
H          -4.11394300      1.39129800     -0.01952900
H          -4.69021300      1.05017400      1.45853300
H          -2.01188300      0.35734100     -0.88837200
H          -1.29251700      0.87084700      0.63966300
H          -2.89874500     -0.42709500      1.93433000
H          -1.30481900     -1.94997500     -0.59463700
H          -0.91082700     -1.70388100      1.10789800
H          -4.21829700     -1.11527500     -0.76604800
H          -3.50264300     -2.27898200      0.38374100
H          -4.95912000     -1.36364200      0.83810500
H           1.07940800     -1.83448500     -0.52688200
H           0.59025700     -0.25936200     -1.15172400
H           2.37762000      0.01307100      0.58244700
H           0.87151000      0.72976800      1.19555500
H           1.39020300     -0.86847400      1.77487800
