20
b3lypvdz=-236.904667142324 
C          -1.71295900      0.21940900      0.93336800
C          -1.09984300     -1.05720700      0.34218500
C           0.23826000     -0.84036600     -0.38561100
C           1.39780800     -0.39135900      0.51613300
C           2.72328800     -0.22831900     -0.24010600
C           3.90015100      0.15580600      0.66504200
H          -1.84957000      0.99082400      0.15524700
H          -2.70077800      0.01201800      1.37801000
H          -1.08143700      0.65113200      1.72751800
H          -1.81912800     -1.50335200     -0.36820700
H          -0.96274300     -1.80336200      1.14737100
H           0.52754300     -1.78259700     -0.88776600
H           0.09283200     -0.09586200     -1.19169000
H           1.14763000      0.56739600      1.00616800
H           1.53127900     -1.13019300      1.32949700
H           2.96180900     -1.17240100     -0.76452700
H           2.59903900      0.53767300     -1.02821100
H           4.83277500      0.25528400      0.08492000
H           4.07003000     -0.60685500      1.44401800
H           3.71881300      1.11783100      1.17584100
