14
b3lypvdz=-158.333934066355 
C          -1.09344800     -1.06186500      0.33582600
C           0.24803700     -0.82323900     -0.37711300
C           1.38078900     -0.35281800      0.54488600
C          -1.72861300      0.20496400      0.92477800
H          -1.79985900     -1.51699200     -0.38200600
H          -0.95171100     -1.80741500      1.14099400
H           0.56071100     -1.75992600     -0.87403400
H           0.09976200     -0.08257400     -1.18554900
H           2.32864200     -0.26299800     -0.01187500
H           1.16693900      0.63209900      0.99305000
H           1.54411600     -1.06694200      1.37037900
H          -1.87913200      0.97227300      0.14521600
H          -2.71236300     -0.01886100      1.37039000
H          -1.10376900      0.64909400      1.71745800
