13
b3lypvdz=-646.523974415569 
S          -2.42056200     -1.76656800     -0.90998300
O          -3.17603700      2.67494300     -1.24254700
N          -3.77459600      1.06060600      0.25938200
C          -3.43821900     -0.04563000      1.12663000
C          -3.58110900     -1.43248900      0.47821600
C          -2.87287500      1.82577600     -0.42873000
H          -1.29916300     -1.86355200     -0.14664800
H          -4.74645200      1.20543700     -0.00335000
H          -2.40411200      0.09916500      1.48136800
H          -4.08241800     -0.01485000      2.02362500
H          -3.47878000     -2.22021800      1.24139700
H          -4.58046100     -1.54179100      0.02629200
H          -1.82041700      1.59067200     -0.13615200
