19
b3lypvdz=-252.938193438902 
N          -2.05492300      1.03362600     -0.44840400
C          -1.79506300      0.11802500      0.67369900
C          -3.13737500     -0.32779100      1.28862400
C          -0.87245300     -1.07520700      0.33971000
C          -4.07286800     -1.07991300      0.33535600
C           0.54956600     -0.66980400     -0.06231600
H          -2.43457200      0.49819900     -1.23511600
H          -1.17408500      1.41837000     -0.79538300
H          -1.28325900      0.72179500      1.44813100
H          -3.65640500      0.57178300      1.65964700
H          -2.92111500     -0.95974300      2.16828900
H          -1.33197400     -1.67108200     -0.47103900
H          -0.82186700     -1.74573400      1.21825300
H          -4.36949900     -0.44801600     -0.51860000
H          -3.61366800     -1.99839400     -0.06709200
H          -5.00137600     -1.37737000      0.84934800
H           1.04538500     -0.10375800      0.74613800
H           1.17371000     -1.54999300     -0.28530500
H           0.55374000     -0.03239100     -0.96334000
