15
b3lypvdz=-610.597382991647 
S          -2.33002800     -1.80162600     -0.80845700
N          -1.66554000      1.44552100      0.05823400
C          -1.81655800      0.24943100      0.89229100
C          -3.33011600     -0.08122300      1.05037400
C          -1.12434100     -1.02509100      0.33926900
C          -3.64399500     -1.46400700      0.43629200
H          -1.98074100      1.21385400     -0.89016300
H          -0.67229200      1.67490000     -0.03197600
H          -1.37586800      0.49215400      1.87531800
H          -3.90196700      0.70724500      0.53871800
H          -3.63793600     -0.05755500      2.10865700
H          -0.19520700     -0.79073100     -0.20197000
H          -0.88400400     -1.73931700      1.14708000
H          -3.61904800     -2.25939500      1.20029300
H          -4.62495900     -1.50015900     -0.06006000
