14
b3lypvdz=-158.335316919594 
C          -1.07515700     -1.03143100      0.35115300
C           0.25140300     -0.82990900     -0.39280800
C           1.40262100     -0.39326900      0.52194400
C           2.73503500     -0.21956200     -0.21846300
H          -1.87579800     -1.34789000     -0.33752800
H          -1.40334600     -0.09772700      0.84095100
H          -0.98245900     -1.80246000      1.13535300
H           0.53160700     -1.76905900     -0.90639000
H           0.11353000     -0.07336400     -1.18782500
H           1.13123900      0.55714000      1.01906400
H           1.52731000     -1.13870800      1.32959500
H           3.53531800      0.10211200      0.46829800
H           3.05560800     -1.16577200     -0.68864100
H           2.65468900      0.53720100     -1.01790200
