18
b3lypvdz=-595.764148446209 
S          -2.23758600     -1.92007600     -0.81084400
C          -1.70801800      0.23273700      0.93204400
C          -1.09615200     -1.05982400      0.38633200
C           0.23057700     -0.84161600     -0.35780500
C           1.38901900     -0.39208700      0.54354400
C           2.69999800     -0.19951900     -0.22706800
H          -3.31596400     -1.98061900      0.01638000
H          -1.87886600      0.95751900      0.11860100
H          -2.67384100      0.04475600      1.42828900
H          -1.04231200      0.69837600      1.67897200
H          -0.92318700     -1.76573500      1.21652600
H           0.51780300     -1.78243900     -0.86151200
H           0.07184100     -0.09658700     -1.15995200
H           1.12706300      0.55151300      1.05404700
H           1.53626500     -1.14283400      1.34254900
H           3.51129600      0.12822000      0.44299300
H           3.02278500     -1.13651900     -0.71374800
H           2.59208000      0.56133300     -1.01924800
