20
b3lypvdz=-236.895428758555 
C          -1.79560100      0.18091000      0.54617400
C          -3.26010900     -0.09458100      1.01111700
C          -1.01535600     -1.01157900     -0.03200500
C          -3.82564700     -1.49388800      0.72990100
C           0.43684100     -0.67672800     -0.41019800
C           1.35973500     -0.42831400      0.78577100
H          -1.79358100      0.97975800     -0.21729900
H          -1.23349500      0.59457500      1.40022400
H          -3.92830500      0.64867200      0.54380900
H          -3.33315700      0.09096400      2.09700500
H          -1.54126700     -1.39277400     -0.92415700
H          -1.00278500     -1.84769400      0.69108000
H          -3.88000600     -1.71598600     -0.34850500
H          -3.21883200     -2.28585100      1.19610900
H          -4.84531200     -1.58433800      1.13882500
H           0.85040200     -1.50846800     -1.00803000
H           0.44928100      0.20635000     -1.07767000
H           2.39186500     -0.22582800      0.45541700
H           1.03410200      0.43258000      1.39323200
H           1.38722700     -1.30737900      1.45440000
