19
b3lypvdz=-252.936752773134 
N          -1.96574500      1.39079500      0.03936600
C          -1.67513300      0.26242500      0.92919900
C          -1.07668600     -1.00046000      0.28165100
C           0.29070500     -0.81132400     -0.39320900
C           1.43403400     -0.43027700      0.55589700
C           2.78147200     -0.28218900     -0.15449700
H          -2.54310600      1.07026500     -0.74314600
H          -1.10090400      1.72659000     -0.39253000
H          -2.61500400     -0.01942900      1.43660800
H          -1.00979800      0.63245700      1.72896300
H          -1.79424500     -1.37823400     -0.47071400
H          -1.00770400     -1.78814500      1.05661500
H           0.56186800     -1.74119200     -0.92595000
H           0.19958900     -0.03977900     -1.18217700
H           1.19384000      0.51394700      1.07683900
H           1.51667000     -1.19506900      1.35130600
H           3.57631300      0.01601000      0.54810900
H           3.09284900     -1.22810800     -0.63097100
H           2.73688300      0.48101800     -0.95076100
