14
b3lypvdz=-572.513876459755 
S          -2.21646800     -1.75505900     -0.94303400
N          -1.87387100      1.38405000      0.04324500
C          -1.65147300      0.26866900      0.95361500
C          -1.08993400     -1.04327900      0.36038300
C           0.29124900     -0.87212200     -0.27748500
H          -3.29693100     -1.93317100     -0.13700600
H          -2.44147400      1.05646500     -0.74331600
H          -0.98784100      1.68532000     -0.36887300
H          -2.60488800      0.04015400      1.46254800
H          -0.95466200      0.60014000      1.74671200
H          -1.02810000     -1.79204500      1.16768200
H           1.00439200     -0.48916500      0.47175400
H           0.67945500     -1.82493500     -0.66798100
H           0.25844700     -0.15432300     -1.11384300
