10
b3lypvdz=-135.0821068979 
C          -3.63120100     -1.43930900      0.42544500
N          -3.89307500      1.09910500      0.31804700
C          -3.32850900     -0.05669600      1.01913500
H          -3.25160700     -1.51889000     -0.60917000
H          -3.15858300     -2.24412300      1.01469100
H          -4.71872700     -1.63217000      0.40388100
H          -3.56042000      1.10356400     -0.65051100
H          -4.90949800      0.99468700      0.25135200
H          -2.23412900      0.08830900      1.06804200
H          -3.69035000     -0.02097700      2.06268800
