22
b3lypvdz=-292.224874112185 
N          -1.82632400      1.41215700     -0.14163400
C          -1.77571400      0.24926300      0.75657900
C          -3.19762300     -0.04972500      1.24476900
C          -1.12220600     -1.02049200      0.16060800
C           0.28845200     -0.83709000     -0.42228800
C           1.36090500     -0.39760100      0.58417500
C           2.74877300     -0.24942500     -0.04630800
H          -2.31520600      1.15259200     -1.00467300
H          -0.88247700      1.67127900     -0.43721200
H          -1.17910000      0.56830400      1.63135800
H          -3.65910900      0.85744800      1.66382500
H          -3.83233800     -0.39678300      0.40857600
H          -3.20400100     -0.84004800      2.01291400
H          -1.78504200     -1.41085500     -0.63554400
H          -1.09908800     -1.80043400      0.94566000
H           0.60639200     -1.78575400     -0.89231800
H           0.24719200     -0.10298700     -1.24948300
H           1.06904000      0.56111800      1.04979300
H           1.40605800     -1.12928400      1.41265400
H           3.49445100      0.08749500      0.69186400
H           3.10318200     -1.20592700     -0.46853200
H           2.74088400      0.48465000     -0.87078400
