17
b3lypvdz=-611.797772247869 
S          -2.19575800     -1.78608300     -0.91183300
N          -1.94857300      1.37033000      0.02812200
C          -1.66077200      0.27417600      0.94404000
C          -1.05672400     -1.02042100      0.35260400
C           0.30143300     -0.83081300     -0.34311300
C           1.43963700     -0.45473000      0.61110400
H          -3.26783500     -1.93382700     -0.08744700
H          -2.50013200      1.00924800     -0.75501200
H          -1.08336500      1.72309800     -0.38759600
H          -2.59850600      0.00358100      1.46232900
H          -0.98243300      0.64619400      1.73303000
H          -0.94103800     -1.75654200      1.16654200
H           0.56416300     -1.76473400     -0.86772000
H           0.19336300     -0.06257600     -1.13017100
H           2.39414800     -0.39010800      0.06419500
H           1.27516300      0.51724500      1.10473000
H           1.56182900     -1.21033700      1.40559700
