22
b3lypvdz=-292.221471733738 
N          -3.93710200      1.27195300      0.94178200
C          -1.83245200      0.15366800      0.32222300
C          -3.27127000     -0.02878900      0.80892000
C          -1.05471100     -1.16129900      0.18914000
C           0.37150100     -1.00153200     -0.36290500
C           1.37117900     -0.35767700      0.60802700
C           2.76576400     -0.17453100     -0.00077700
H          -4.11277200      1.66074300      0.01154100
H          -4.86176200      1.14390400      1.35838300
H          -1.85285500      0.65879500     -0.66364400
H          -1.32529300      0.85107700      1.01011600
H          -3.79571100     -0.74179400      0.13429200
H          -3.26035300     -0.50221100      1.80748500
H          -1.62072600     -1.84097400     -0.47391400
H          -1.01104000     -1.66873400      1.17222100
H           0.75791100     -1.99480200     -0.65728600
H           0.33176200     -0.40628300     -1.29503800
H           0.98897500      0.62118300      0.94767700
H           1.44439300     -0.98474700      1.51611500
H           3.46514500      0.28275500      0.71822700
H           3.19483800     -1.14069900     -0.31921700
H           2.73127800      0.47699300     -0.89126800
