12
b3lypvdz=-517.192797291982 
S          -2.31108800     -1.76744800     -0.80541900
C          -1.04716700     -1.07540600      0.35514400
C           0.26645500     -0.84267100     -0.39151700
C           1.38103400     -0.35679700      0.54070000
H          -3.34670200     -1.78031100      0.07500200
H          -1.42328300     -0.12759000      0.77376100
H          -0.89602500     -1.78288100      1.18650300
H           0.57853800     -1.78049300     -0.88540600
H           0.10119500     -0.10664300     -1.19807500
H           2.31875800     -0.19865100     -0.01621000
H           1.11387500      0.59754300      1.02711900
H           1.58381200     -1.09145300      1.33809800
