13
b3lypvdz=-232.321961771625 
O           5.37453600     -0.13271800     -1.28547000
C           1.41019100     -0.36722800      0.54571200
C           2.71294300     -0.25068300     -0.25012800
C           3.91363000      0.12366800      0.61850100
C           5.23206100      0.15510600     -0.11942300
H           0.57035100     -0.64461700     -0.11145100
H           1.14885800      0.58561200      1.03887000
H           1.48447900     -1.13460300      1.33581900
H           2.93104300     -1.20046500     -0.76712100
H           2.60107400      0.50093600     -1.05061800
H           4.03711800     -0.58610700      1.46172400
H           3.77880100      1.11208400      1.10195700
H           6.11251200      0.47011500      0.50462700
