6
b3lypvdz=-438.621348494186 
S          -2.29625000     -1.81025000     -0.80152300
C          -1.09339300     -1.04478600      0.35625200
H          -3.35843200     -1.80044700      0.04762400
H          -1.42042400     -0.04213600      0.66939900
H          -0.14935000     -0.95049600     -0.20003800
H          -0.92225000     -1.67818400      1.23838500
