23
b3lypvdz=-276.180825345964 
C          -1.80101800      0.17330500      0.48786000
C          -3.24638900     -0.06466100      1.02764600
C          -1.06078900     -1.04868100     -0.08203000
C          -3.83499100     -1.47040000      0.84545600
C           0.37090400     -0.74463300     -0.55285100
C           1.37274900     -0.45547600      0.57250300
C           2.79040200     -0.18717000      0.06148300
H          -1.82480600      0.94449400     -0.30333600
H          -1.19620700      0.60984700      1.30025300
H          -3.92794800      0.66043700      0.55129900
H          -3.27143800      0.17697100      2.10464100
H          -1.63507300     -1.45814100     -0.93078300
H          -1.02089900     -1.85683400      0.67098400
H          -3.93257200     -1.75136200     -0.21605400
H          -3.21928900     -2.24227700      1.33360100
H          -4.83912600     -1.52432600      1.29690500
H           0.74460900     -1.60537800     -1.13816000
H           0.35324600      0.11013100     -1.25728400
H           1.03197500      0.40821800      1.17105000
H           1.38525900     -1.31638100      1.26842800
H           3.48907800      0.01516200      0.88913600
H           3.18361500     -1.04907900     -0.50558800
H           2.81521100      0.68413400     -0.61595900
