6
b3lypvdz=-169.813835193003 
O          -3.13010100      2.68689700     -1.20172400
C          -2.94606200      1.81785700     -0.37525500
N          -1.72705900      1.40630400      0.07396100
H          -3.77757000      1.24072900      0.10476900
H          -1.63064300      0.65498700      0.74455500
H          -0.89376600      1.85132600     -0.29720700
