20
b3lypvdz=-651.083065676057 
S          -2.23268500     -1.79905800     -0.89797100
N          -1.91046500      1.37122400      0.06203400
C          -1.66343300      0.24947700      0.95892200
C          -1.07023900     -1.04270400      0.35070300
C           0.27507400     -0.84798700     -0.36653700
C           1.42104600     -0.40617800      0.55427700
C           2.75045200     -0.24911900     -0.18972300
H          -3.29380900     -1.93678500     -0.05809700
H          -2.45393000      1.04009500     -0.73980200
H          -1.02931000      1.71409100     -0.32788900
H          -2.61595000     -0.01258000      1.45349900
H          -0.99392000      0.59195000      1.76831600
H          -0.94323200     -1.78278500      1.15915800
H           0.55529800     -1.79343200     -0.86318000
H           0.14430700     -0.10788500     -1.17736100
H           1.16602500      0.54929600      1.04642600
H           1.53689000     -1.14450200      1.36928200
H           3.55119900      0.08239500      0.49055300
H           3.07005400     -1.20093500     -0.64797600
H           2.67242900      0.49382100     -1.00193300
