19
b3lypvdz=-310.892758025959 
O           5.41111600     -0.11779900     -1.25364600
C          -1.07523500     -1.02163100      0.37311800
C           0.23646500     -0.82556400     -0.39300100
C           1.40919300     -0.39896600      0.49735600
C           2.72780200     -0.25371900     -0.26902600
C           3.90970700      0.12799400      0.62136000
C           5.24205500      0.16907000     -0.09070300
H          -1.88572500     -1.34863400     -0.29814200
H          -1.40058500     -0.08551400      0.85995500
H          -0.96931700     -1.78303200      1.16506800
H           0.50409800     -1.76407800     -0.91352700
H           0.09030400     -0.07076400     -1.18783500
H           1.16138200      0.55672800      0.99879100
H           1.53766300     -1.14110000      1.30865700
H           2.96470300     -1.19810400     -0.78904000
H           2.61829400      0.50142300     -1.06732400
H           4.02362700     -0.58269800      1.46499200
H           3.76064100      1.11368500      1.10532700
H           6.10691200      0.49050200      0.55122100
