18
b3lypvdz=-326.950886751392 
O          -3.50408500      2.55311000     -1.26462500
N          -1.94223800      1.42655600     -0.01642300
C          -1.60721800      0.36823500      0.92479600
C          -1.04885900     -0.90416800      0.26669800
C           0.34679700     -0.75742900     -0.35815800
C           1.48124700     -0.59824200      0.65635300
C          -3.21142300      1.71961300     -0.42923600
H          -1.19974700      1.94564600     -0.47664600
H          -2.52913600      0.11696700      1.47464400
H          -0.90348500      0.76298700      1.67800500
H          -1.76610800     -1.22382300     -0.50836800
H          -1.02933800     -1.70465900      1.02987400
H           0.54761800     -1.64604200     -0.98127500
H           0.34578700      0.09446500     -1.06451000
H           2.45861600     -0.55796400      0.14833700
H           1.38865900      0.32166000      1.25821900
H           1.50784100     -1.44579000      1.36357200
H          -3.96772700      1.09937800      0.11484200
