14
b3lypvdz=-158.335381555907 
C          -1.14846900     -1.05366400      0.16978900
C           0.30674900     -0.81414400     -0.24406300
C          -1.83439300      0.19599700      0.73650000
C          -3.28673500     -0.04490000      1.15878700
H          -1.72916600     -1.42676300     -0.69493800
H          -1.19160200     -1.86073800      0.92606000
H           0.91203300     -0.46248400      0.60994800
H           0.77980100     -1.73140100     -0.63223800
H           0.38070200     -0.04537900     -1.03329300
H          -1.78743500      1.00520100     -0.01686000
H          -1.25545100      0.56591400      1.60418500
H          -3.75420100      0.86941700      1.56065400
H          -3.90242400     -0.39004300      0.30957100
H          -3.35281000     -0.81921200      1.94329800
