22
b3lypvdz=-292.215286784798 
N          -1.83772500      1.41283000     -0.23434400
C          -1.77872700      0.21388300      0.61941500
C          -3.23092700     -0.12432800      1.09500700
C          -1.02920400     -0.98340700     -0.01188200
C          -3.82360000     -1.48333400      0.70346900
C           0.43620700     -0.71212900     -0.39023500
C           1.36291200     -0.45932200      0.80217400
H          -2.26453200      1.16762200     -1.13429700
H          -0.89216700      1.72688900     -0.46455000
H          -1.21219400      0.52257100      1.51486600
H          -3.87856000      0.68109800      0.71089200
H          -3.27442000     -0.03090800      2.19393400
H          -1.57557600     -1.31429900     -0.91334400
H          -1.05652100     -1.83534200      0.69194200
H          -3.90250400     -1.61398500     -0.38838100
H          -3.22973000     -2.32567100      1.09258700
H          -4.83884000     -1.58472600      1.12054300
H           0.81910900     -1.57580000     -0.96177100
H           0.48597500      0.14479600     -1.08768400
H           2.40325600     -0.30877100      0.46980500
H           1.06918800      0.43464500      1.37792300
H           1.35278100     -1.31321100      1.50263000
