9
b3lypvdz=-209.093154179309 
O          -3.28580200      2.82918800     -1.10880600
C          -2.95647000      1.97646000     -0.30654900
N          -3.73506200      0.92287900      0.07238100
C          -3.35379000     -0.11941000      1.00391700
H          -1.96586000      1.97047000      0.21600400
H          -4.64235500      0.87029200     -0.38246700
H          -2.30770500      0.03322500      1.31187400
H          -3.42831700     -1.11887700      0.54017800
H          -3.97784000     -0.11152700      1.91456900
