15
b3lypvdz=-341.814070252852 
O          -3.21018000      2.89597200     -0.98382400
N          -1.79585600      1.16520200     -0.29779900
N          -3.87034600      1.24374500      0.52641800
C          -1.82118800      0.18012000      0.78516100
C          -3.34248100     -0.06495000      0.89072700
C          -1.00610400     -1.07068600      0.48631400
C          -2.98471600      1.89440900     -0.33173500
H          -0.95016500      1.68698800     -0.50451600
H          -4.85515300      1.36819600      0.31478300
H          -1.46760500      0.63364700      1.73411100
H          -3.64496900     -0.85746600      0.17647100
H          -3.64888500     -0.37179500      1.90196800
H          -1.34258900     -1.53501800     -0.45457700
H           0.06607200     -0.83224500      0.39000900
H          -1.11193500     -1.80831700      1.30009100
