14
b3lypvdz=-158.333884920711 
C          -0.81392500     -1.02806900      0.68832900
C          -3.93251100     -1.23753200      0.16844800
C          -1.81161600      0.13381400      0.69618300
C          -3.23849100     -0.25478200      1.11649000
H          -1.06489300     -1.77967900     -0.07686800
H           0.20705800     -0.66855600      0.47884200
H          -0.79437000     -1.54288000      1.66535900
H          -4.02269300     -0.81541300     -0.84713300
H          -3.37946000     -2.18743000      0.09205200
H          -4.94882100     -1.47693400      0.52179600
H          -1.84487900      0.59776600     -0.30765800
H          -1.44415400      0.91928900      1.38013400
H          -3.84409600      0.66586500      1.19233000
H          -3.20794700     -0.68665800      2.13459500
