83
b3lypvdz=-4466.397175435247 
Br          9.18973600     -2.35479200      0.61575400
O          -2.65846000      1.12576800     -0.86535900
O          -3.49175100      1.63503400      1.24588500
O          -3.19355200     -2.36183500     -0.73484100
O          -7.52548200     -0.25426400      1.12021800
O           0.38523000      1.27663300     -1.26222300
N          -4.03827600     -0.38809300      0.12647300
N          -6.22578400      1.25326700      0.04695700
N          -0.90188900     -0.42408700     -0.42555000
N           3.15873200     -2.20799000     -0.08041500
N           8.57813900      0.40308100      0.23709300
C          -4.99337300      1.72884800     -0.59581000
C          -3.76510800      1.04015700      0.01438100
C          -5.22738600     -0.89421700      0.82300400
C          -5.10267900      3.25020100     -0.45267100
C          -2.12836100     -0.16936300     -1.18778100
C          -7.28691300      2.27281100      0.03041200
C          -6.61330400      3.50218900     -0.61168200
C          -3.18317500     -1.14562900     -0.61071200
C          -6.43399500      0.05447700      0.65320000
C          -5.05085900     -1.13642900      2.34406300
C          -1.91825400     -0.26468100     -2.72370200
C          -4.22473500     -2.33980900      2.85024400
C          -3.20238400      0.01972600     -3.51047300
C          -1.32474800     -1.61611200     -3.15193300
C           0.29432500      0.25270500     -0.60661700
C           1.49855600     -0.40353000      0.09678500
C           4.29770500     -1.32157600     -0.36356500
C           1.91337400     -1.68892900     -0.63731900
C          -4.73051100     -3.68889400      2.31963900
C          -2.70635600     -2.21435600      2.65254700
C           3.94231500      0.14620900     -0.04838300
C           2.67031100      0.53401500      0.15889000
C           5.56628400     -1.83471200      0.38276300
C           5.07355100      1.10327000     -0.04065400
C           6.67126500     -0.83318500      0.28598000
C           6.35295200      0.54388100      0.10034300
C           3.38287000     -3.58875600     -0.49906000
C           7.54072800      1.30748300      0.08440800
C           8.04136600     -0.87663500      0.36204800
C           5.02472900      2.49665600     -0.17879700
C           7.48423700      2.70032700     -0.05398900
C           6.20928500      3.26562200     -0.17577200
H          -4.99245500      1.44340500     -1.66228500
H          -5.49314700     -1.83981600      0.32701400
H          -4.75931000      3.53687400      0.55159200
H          -4.49150400      3.78378400     -1.19333700
H          -8.16133800      1.91390000     -0.53434500
H          -7.62633900      2.45484700      1.06297200
H          -6.93548800      4.43769700     -0.13275600
H          -6.87992300      3.57183900     -1.67870000
H          -6.07858700     -1.25564600      2.71978600
H          -4.65839200     -0.20821100      2.79110800
H          -1.19198200      0.53156300     -2.94873900
H          -0.85796600     -1.33492300      0.02152400
H          -2.64798500      1.27142400      1.56069000
H          -4.40322200     -2.33184400      3.94271400
H          -3.99670100     -0.71048200     -3.27746900
H          -2.99447200     -0.05841000     -4.58996100
H          -3.58477600      1.03170300     -3.31541800
H          -2.04647400     -2.43366100     -3.00682600
H          -1.05488700     -1.57368600     -4.21934500
H          -0.41189200     -1.87020700     -2.59424400
H           1.18955700     -0.68315600      1.12302500
H           4.54518300     -1.34695500     -1.45433000
H           1.14096100     -2.46444000     -0.51538900
H           1.99362700     -1.47061500     -1.72798300
H          -4.53910800     -3.79098700      1.23807600
H          -5.81187900     -3.81277000      2.49825400
H          -4.21002300     -4.51896500      2.82509700
H          -2.17240700     -2.93700600      3.29082900
H          -2.42196100     -2.43477800      1.61165000
H          -2.33776100     -1.20861100      2.91991800
H           2.44903600      1.58282200      0.36730500
H           5.88468800     -2.79576900     -0.04440300
H           5.29036500     -2.01964900      1.43689400
H           3.60905400     -3.69167600     -1.58549100
H           4.20741700     -4.04372400      0.06626700
H           2.48095700     -4.18181100     -0.28179800
H           4.06876800      3.00385600     -0.32169300
H           9.56538700      0.61513200      0.27623400
H           8.38075100      3.32408500     -0.07112200
H           6.12687400      4.34918300     -0.29329700
