18
b3lypvdz=-310.593845096089 
     C      2.68409400     -0.55217300      0.00000300
     C      1.45180100     -1.11043200      0.00000000
     C      0.14651800     -0.42142100     -0.00000100
     C      0.02771800      0.92591700     -0.00000400
     C     -2.33019500     -0.98934600      0.00000300
     C     -1.03237200     -1.32539600     -0.00000000
     C      3.91669400     -1.32113700     -0.00000100
     C      5.15215800     -0.78537100      0.00000100
     H      1.39903400     -2.20669100     -0.00000200
     H     -3.10300800     -1.76161900      0.00000200
     H     -0.79087100     -2.39546300     -0.00000200
     H      3.81064800     -2.41391100     -0.00000600
     H      6.04422800     -1.41567100     -0.00000100
     H      2.79674000      0.53960300      0.00000500
     H      0.89874900      1.58399700     -0.00000300
     H     -0.94573600      1.41958000     -0.00001000
     H     -2.67554300      0.04845600      0.00000700
     H      5.30704200      0.29847800      0.00000600
