14
b3lypvdz=-233.237980074266 
     C      1.35588400     -1.45294700     -0.00000200
     C      0.23670600     -0.69369400      0.00000000
     C      0.27136200      0.78890400      0.00000100
     C      1.35841900      1.57292700      0.00000100
     C     -2.29359300     -0.81586900     -0.00000100
     C     -1.07214300     -1.37453200      0.00000300
     H      1.29636400     -2.54468200     -0.00000200
     H      1.25642900      2.66133500      0.00000200
     H     -3.18733800     -1.44442800     -0.00000000
     H     -1.00985200     -2.46955400      0.00000800
     H      2.35841700     -1.02081600     -0.00000500
     H     -0.70146700      1.28774300      0.00000100
     H      2.37806300      1.17678600      0.00000100
     H     -2.45925100      0.26452700     -0.00000700
