6
b3lypvdz=-78.533113718792 
     C      2.59082900      0.74677300      0.00000000
     C      2.62537100     -0.58647300      0.00000000
     H      1.64191800      1.29316400     -0.00000000
     H      3.51000400      1.34160500      0.00000000
     H      1.70619600     -1.18130500      0.00000000
     H      3.57428200     -1.13286500     -0.00000000
