18
b3lypvdz=-310.5997233515 
     C      2.77826300     -0.60099800     -0.00000900
     C      1.57127800     -1.22307800     -0.00001600
     C      0.24954200     -0.60792200     -0.00001600
     C     -0.03788300      0.71746300     -0.00001900
     C     -1.36804700      1.32981600     -0.00000500
     C     -2.56455500      0.71200000      0.00001700
     C      4.04344400     -1.31127800      0.00000100
     C      5.25211300     -0.71461400      0.00001400
     H      1.56334300     -2.32026000     -0.00001600
     H     -1.36408200      2.42648400     -0.00001100
     H     -3.48868800      1.29496600      0.00003300
     H      3.99289300     -2.40779600      0.00000000
     H      6.17233600     -1.30372200      0.00002500
     H      2.83621400      0.49482900     -0.00000600
     H     -0.57967200     -1.32493600     -0.00000900
     H      0.78938300      1.43664300     -0.00002800
     H     -2.67078700     -0.37756600      0.00002700
     H      5.35730500      0.37526900      0.00001700
