18
b3lypvdz=-310.602762264067 
     C      2.66479700     -0.50665300      0.00000200
     C      1.39542700     -1.19988700     -0.00000100
     C      0.15296500     -0.64325700     -0.00000200
     C     -0.17661100      0.77102300     -0.00000000
     C     -1.43870300      1.24263200      0.00000100
     C      3.85884100     -1.15109500      0.00000200
     C      5.49867000      0.76566700     -0.00000200
     C      5.19144600     -0.54523500      0.00000200
     H      1.45503600     -2.29530600     -0.00000100
     H     -1.64101200      2.31636700      0.00000400
     H      3.85141800     -2.24840600     -0.00000100
     H      6.54068600      1.09387000     -0.00000300
     H      6.02102900     -1.26204500      0.00000600
     H      2.64521600      0.58909200      0.00000500
     H     -0.70423300     -1.32658900     -0.00000400
     H      0.64831700      1.49196600      0.00000200
     H     -2.30353700      0.57168600     -0.00000000
     H      4.73744800      1.55127000     -0.00000700
