14
b3lypvdz=-233.234034896377 
     C      2.69274100     -0.78003200     -0.00000200
     C      1.43611100     -1.24896400      0.00000000
     C      0.16809000     -0.47617500      0.00000100
     C      0.13766300      0.87342000      0.00000200
     C     -2.34021600     -0.89478500     -0.00000200
     C     -1.06346200     -1.30581700      0.00000200
     H      1.30746600     -2.33857600      0.00000000
     H     -3.15529300     -1.62234900     -0.00000100
     H     -0.88602900     -2.38860400      0.00000500
     H      2.93180400      0.28781200     -0.00000100
     H      3.53969600     -1.47014700     -0.00000300
     H      1.05145800      1.47111000      0.00000100
     H     -0.80175100      1.42995400      0.00000300
     H     -2.62717800      0.16095400     -0.00000600
