14
b3lypvdz=-233.245370562743 
     C      2.70600900     -0.58854600      0.00000100
     C      1.50784900     -1.21974500      0.00000000
     C      0.17920700     -0.60153100      0.00000100
     C     -0.11538800      0.71145700     -0.00000100
     C      3.97991800     -1.28587200     -0.00000000
     C      5.18029200     -0.67493500     -0.00000000
     H      1.50598000     -2.31707900     -0.00000100
     H      3.94182200     -2.38273500     -0.00000100
     H      6.10763000     -1.25268600     -0.00000100
     H      2.75097400      0.50796200      0.00000300
     H     -0.65695100     -1.31071700      0.00000200
     H      0.65342200      1.48978300     -0.00000100
     H     -1.15431800      1.04950200     -0.00000200
     H      5.27185400      0.41614400      0.00000100
