14
b3lypvdz=-233.251394600778 
     C      2.60197500     -0.65108900     -0.00000100
     C      1.43625200     -1.34348600      0.00000000
     C      0.12220500     -0.72476300      0.00000100
     C     -1.03854900     -1.40749900      0.00000000
     C      3.91602600     -1.26978200     -0.00000100
     C      5.07678400     -0.58704400      0.00000000
     H      1.46400300     -2.44118900      0.00000100
     H     -1.06308500     -2.50250900     -0.00000000
     H      3.94476400     -2.36685900     -0.00000100
     H      6.03778200     -1.10687600      0.00000200
     H      2.57416800      0.44661300     -0.00000100
     H      0.09351800      0.37231500      0.00000100
     H     -1.99956900     -0.88770200     -0.00000000
     H      5.10132600      0.50797000     -0.00000000
