16
b3lypvdz=-309.461170514946 
     C      2.69759900     -0.75996100      0.00000100
     C      1.47238000     -1.30831300     -0.00000100
     C      0.17563900     -0.60493400      0.00000000
     C      0.06146800      0.79881800     -0.00000000
     C     -1.18942200      1.41568300     -0.00000000
     C     -2.36000100      0.64652300      0.00000000
     C     -2.26575600     -0.74797400      0.00000100
     C     -1.01119200     -1.36364000      0.00000100
     H      1.40102100     -2.40324800     -0.00000700
     H     -1.25372600      2.50765400     -0.00000200
     H     -3.33866200      1.13421100     -0.00000100
     H     -3.17171800     -1.36011600      0.00000200
     H     -0.95253000     -2.45692900      0.00000200
     H      2.86787400      0.32119100      0.00000600
     H      3.58738100     -1.39455200     -0.00000000
     H      0.95644500      1.42548800     -0.00000200
