10
b3lypvdz=-155.88525695093 
     C      3.85389000      1.66233300     -0.00000200
     C      3.93341400     -1.43344400      0.00000300
     C      4.94336400      0.87762800      0.00000100
     C      4.98085800     -0.59367300     -0.00000200
     H      3.95109300      2.75112200      0.00000200
     H      4.08746200     -2.51574200     -0.00000000
     H      5.92447800      1.36663600      0.00000800
     H      5.98550700     -1.03222100     -0.00000800
     H      2.83746000      1.25763000     -0.00001000
     H      2.89737500     -1.08137000      0.00000900
