10
b3lypvdz=-155.89149752262 
     C      0.17399900      0.75047700      0.00000100
     C      1.32875500      1.43912200     -0.00000000
     C     -1.14729100      1.36715200      0.00000100
     C     -2.30206100      0.67852700     -0.00000000
     H      1.34523300      2.53456000     -0.00000100
     H     -1.17953600      2.46427400      0.00000100
     H     -3.26700300      1.19160000     -0.00000100
     H      0.20624800     -0.34664400      0.00000100
     H      2.29369400      0.92604000      0.00000000
     H     -2.31853700     -0.41690800     -0.00000000
