92
b3lypvdz=-2671.8348825
C       2.46628120     -3.25468910     -1.37480183
C       2.39437069     -4.75518184     -1.05054397
C       1.15862148     -2.72905235     -1.92513666
O       0.98085100     -2.30648720     -3.04426495
O       0.17709414     -2.80707326     -0.98195339
C      -1.16582323     -2.50158107     -1.39691102
C      -1.40030672     -1.02126810     -1.69060310
C      -1.59505986     -3.47265320     -2.50534587
O      -1.06265526     -4.53039972     -2.74370447
O      -2.70478124     -3.01182431     -3.11958806
C      -3.25427491     -3.83515665     -4.16794125
C      -4.23373962     -4.86252335     -3.59982184
C      -3.96052485     -2.88431604     -5.12593803
O      -4.30803652     -1.75614080     -4.88314077
O      -4.17117881     -3.53074373     -6.30078853
C      -5.02944356     -2.89299796     -7.26685036
C      -4.41365522     -1.65462180     -7.91267667
C      -6.42533886     -2.71401558     -6.66338953
O      -6.83925711     -3.30162395     -5.69337196
O      -7.16141969     -1.86543517     -7.41417023
C      -8.55240154     -1.76380335     -7.06148621
C      -9.12373647     -0.55893666     -7.80002156
C      -9.26446010     -3.05153624     -7.47190669
O      -8.82189892     -3.89481265     -8.21119252
O     -10.48951814     -3.09102104     -6.89479661
C     -11.35972690     -4.14813975     -7.32701803
C     -12.43991001     -4.32458884     -6.26692598
C     -11.93096707     -3.77470389     -8.69795779
O     -11.70579043     -2.74634395     -9.29117910
O     -12.72256700     -4.77109418     -9.14414096
C     -13.30998372     -4.59528358    -10.45153790
C     -14.63716384     -3.84201454    -10.35941274
C     -13.51712222     -5.99328755    -11.01771253
O     -13.55741833     -7.02174697    -10.39299478
O     -13.68027852     -5.89688721    -12.36374964
C     -14.09984038     -7.09153018    -13.03933686
C     -13.74925123     -6.94053695    -14.51469725
C     -15.60136616     -7.27882888    -12.80367584
O     -16.30793358     -6.52980530    -12.17112871
O     -16.01507649     -8.41145227    -13.40729624
C     -17.40661004     -8.76132752    -13.24688976
C     -18.26550165     -8.10199641    -14.32646199
C     -17.47819100    -10.27830156    -13.34981287
O     -16.65255697    -11.00502380    -13.83923425
O     -18.65912971    -10.69612797    -12.81998318
C     -18.99218014    -12.07496605    -13.02923814
C     -20.05706061    -12.45457279    -12.00619791
C     -19.47996300    -12.24418793    -14.46871539
O     -19.63938575    -11.35363606    -15.26721029
O     -19.72300605    -13.54602521    -14.73513869
H       3.23669775     -3.04601428     -2.13081182
H       2.71285926     -2.68515582     -0.46235975
H       1.64625979     -4.95081445     -0.26787547
H       3.37245246     -5.11915103     -0.69833033
H       2.10803966     -5.33621030     -1.94138515
H      -1.76393287     -2.79148569     -0.51626761
H      -0.84416888     -0.70305538     -2.58128032
H      -2.47151377     -0.84507831     -1.86169713
H      -1.07287797     -0.42334309     -0.82595470
H      -2.43180227     -4.34242331     -4.69256419
H      -5.02738061     -4.35551203     -3.03031195
H      -4.70194422     -5.42342639     -4.42143835
H      -3.69590600     -5.56282096     -2.94451114
H      -5.15810939     -3.67507878     -8.03347392
H      -3.41030183     -1.90485927     -8.29008435
H      -5.03767136     -1.33613547     -8.75957486
H      -4.33118117     -0.82880721     -7.19494501
H      -8.64727016     -1.65264736     -5.97133981
H      -9.00046776     -0.68182871     -8.88644248
H     -10.19684644     -0.46668143     -7.58262019
H      -8.60535494      0.35708176     -7.48018632
H     -10.77538982     -5.07204830     -7.45663957
H     -13.00887346     -3.39147528     -6.13178396
H     -13.13044096     -5.12396305     -6.56991705
H     -11.97704228     -4.59456607     -5.30634637
H     -12.60378461     -4.04350105    -11.08854240
H     -14.45779986     -2.81470421    -10.01083567
H     -15.11496762     -3.81213828    -11.34906429
H     -15.31749851     -4.35599134     -9.66337714
H     -13.58968922     -7.96122841    -12.59726536
H     -12.66238035     -6.81418971    -14.62736488
H     -14.06482152     -7.83745572    -15.06561701
H     -14.25046249     -6.05996090    -14.94594275
H     -17.74199535     -8.44533374    -12.24850374
H     -17.88190393     -8.35965190    -15.32542338
H     -19.30025396     -8.46560157    -14.25073008
H     -18.25310442     -7.01034000    -14.19562434
H     -18.08915898    -12.69407430    -12.91240928
H     -20.94727565    -11.81641109    -12.11812893
H     -20.35154839    -13.50461808    -12.14376390
H     -19.65859770    -12.32465535    -10.98926702
H     -20.02931725    -13.58563967    -15.66060516
