43
b3lypvdz=-1015.577106766564 
O          -0.85044500     -0.22172200      0.05519200
O           1.92719000      2.63717500      0.85030300
O           0.67357400      1.97015600     -0.90680500
O          -1.70960900     -2.26497900      0.53999500
N           3.21456900     -0.27135200     -0.70479700
C           2.87245900     -0.12964300      0.72189000
C           2.53751700     -1.54022300     -1.05129500
C           1.39277900      0.34576800      0.78863800
C           3.06344500     -1.54933300      1.33878600
C           2.85621800     -2.50642700      0.13239300
C           1.03076100     -1.23743300     -1.17300300
C           0.49532600     -0.73771400      0.17291800
C           4.64956700     -0.26712000     -0.96778600
C           1.26538700      1.70650700      0.11365700
C          -1.86661700     -1.09477000      0.24891100
C           1.86141400      3.98100800      0.34908000
C          -3.19851500     -0.44498300      0.06375900
C          -4.34525000     -1.23531200      0.23727100
C          -3.32805500      0.91179700     -0.27432000
C          -5.61311100     -0.67440900      0.08068300
C          -4.59959700      1.46924100     -0.42649900
C          -5.74117800      0.67960400     -0.25026600
H           3.50858600      0.62906200      1.19623900
H           2.91630100     -1.91804600     -2.01243800
H           1.11533400      0.49367200      1.84583400
H           2.36404100     -1.73941200      2.16698400
H           4.07836900     -1.64520900      1.75346200
H           3.77179400     -3.08065400     -0.07369600
H           2.04916400     -3.23672200      0.29826400
H           0.87881200     -0.45974600     -1.93529700
H           0.47581100     -2.14160800     -1.47029300
H           0.44592900     -1.58435900      0.87137600
H           4.82249400     -0.44412500     -2.04126000
H           5.23606500     -1.02295800     -0.40264800
H           5.06112300      0.72442900     -0.71918700
H           0.82571000      4.35486500      0.38222900
H           2.22090800      4.03105700     -0.68976000
H           2.50089400      4.58041100      1.00836600
H          -4.21611800     -2.28637400      0.50007900
H          -2.43103000      1.51233300     -0.42716600
H          -6.50359700     -1.29165600      0.21973600
H          -4.70262700      2.52299700     -0.69614900
H          -6.73276900      1.12161100     -0.37832500
