18
b3lypvdz=-310.608726497075 
     C      2.77345400     -0.61343600     -0.30498100
     C      1.64186100     -1.35442100     -0.18055700
     C      0.31537900     -0.78847400     -0.01807400
     C     -0.81228800     -1.51551500      0.10415800
     C      4.09371800     -1.18677700     -0.45212800
     C      5.45861700      0.92430700     -0.62704000
     C      5.27079100     -0.51547600     -0.58346400
     C      6.66396000      1.51507600     -0.74165800
     H      1.71126500     -2.45010000     -0.19886500
     H     -0.79671200     -2.61049800      0.08784400
     H      4.13649500     -2.28284500     -0.44980200
     H      6.76028700      2.60331200     -0.77453400
     H      2.68785100      0.47959800     -0.28593900
     H      0.24625000      0.30649700      0.00822700
     H     -1.78442100     -1.03241400      0.22787100
     H      4.56995200      1.56230800     -0.56666800
     H      6.18549900     -1.11327500     -0.67126200
     H      7.58664100      0.92993100     -0.80812700
