18
b3lypvdz=-310.599107259023 
     C      2.79140900      0.79249700     -0.14748300
     C      2.72908600     -0.67971100      0.02273800
     C      1.75290100     -1.46083300     -0.46105300
     C      1.67060500      1.54610900     -0.05372400
     C      4.08454900      1.43456700     -0.39585600
     C      5.27515300      0.81213800     -0.57117200
     C      6.52109900      1.52140700     -0.81363600
     C      7.71726600      0.93036500     -0.99201100
     H      1.73968200     -2.53701800     -0.26782200
     H      1.70158600      2.62961300     -0.19943000
     H      4.05986300      2.53025100     -0.44830400
     H      6.45450100      2.61642600     -0.85241600
     H      8.61993200      1.51733300     -1.17463400
     H      3.54707700     -1.14314700      0.58645800
     H      0.93962800     -1.05109700     -1.06717600
     H      0.70373400      1.10005300      0.18301400
     H      5.33619400     -0.28221700     -0.53764200
     H      7.82823600     -0.15843600     -0.96395200
