10
b3lypvdz=-155.885233115815 
     C      7.63836700      0.90706800     -0.84505700
     C      7.66869200     -0.56437500     -0.84139400
     C      6.55981400      1.69897500     -0.73435300
     C      6.62393000     -1.40001400     -0.72947700
     H      8.61637100      1.39007800     -0.95403400
     H      8.66588300     -1.00740700     -0.94593600
     H      6.66339100      2.78703700     -0.75131500
     H      6.77346900     -2.48286300     -0.74020000
     H      5.54683200      1.30114600     -0.62307500
     H      5.59485100     -1.04394500     -0.62306000
