14
b3lypvdz=-233.238878222254 
     C      2.72459700     -0.75568800     -0.29235000
     C      3.95905200     -1.27355200     -0.43342100
     C      5.40188600      0.78782300     -0.60876300
     C      5.22831900     -0.55314200     -0.57229800
     C      6.67111100      1.50819100     -0.74827200
     C      7.90619000      0.99021400     -0.88322400
     H      4.05149300     -2.36607100     -0.44919800
     H      6.57800200      2.60073500     -0.73935400
     H      8.77469500      1.64587700     -0.98020800
     H      2.53334500      0.32125100     -0.25936800
     H      1.85586900     -1.41141100     -0.19777100
     H      4.52124300      1.43504900     -0.52720600
     H      6.10885900     -1.20038400     -0.65480600
     H      8.09824000     -0.08679300     -0.90846100
