14
b3lypvdz=-233.234020969324 
     C      2.83569900     -0.80094900     -0.29153300
     C      4.10438500     -1.20505800     -0.45215900
     C      5.28931700      0.97977500     -0.58754000
     C      5.32412400     -0.36978300     -0.58876600
     C      6.58557700     -1.14051500     -0.72714100
     C      7.83301800     -0.67169500     -0.87943200
     H      4.28495000     -2.28669200     -0.48854100
     H      6.45939200     -2.23006800     -0.69976200
     H      8.67477900     -1.36189200     -0.97200200
     H      2.54800100      0.25316900     -0.23680700
     H      2.02938700     -1.53267700     -0.20174300
     H      4.35308300      1.53315200     -0.48962900
     H      6.19608100      1.58050600     -0.68381900
     H      8.06840600      0.39602800     -0.92442600
