14
b3lypvdz=-233.245338349575 
     C      2.80168300     -0.80277000     -0.31078700
     C      4.03055900     -1.33727000     -0.44946300
     C      5.25319400     -0.56272500     -0.57195600
     C      6.48108000     -1.11872400     -0.70567200
     C      7.96955900      0.90930100     -0.88750600
     C      7.76219600     -0.41915600     -0.83884000
     H      4.13454400     -2.42960500     -0.47414600
     H      6.54963300     -2.21366600     -0.71823300
     H      8.97961300      1.31258300     -0.99242800
     H      8.63822300     -1.07458000     -0.90930100
     H      2.64495200      0.28017500     -0.27822800
     H      1.91667800     -1.43719100     -0.22124900
     H      5.14322500      0.52893600     -0.54951300
     H      7.15406000      1.63679100     -0.83337800
