14
b3lypvdz=-233.248237800477 
     C      3.01375900     -0.67770100     -0.33319700
     C      1.70010700     -1.28039800     -0.17595200
     C      0.51340000     -0.63221400     -0.04675400
     C      0.29865500      0.80568100     -0.02488600
     C     -0.91533000      1.37551700      0.09479200
     C      4.15010600     -1.38924300     -0.45558200
     H      1.68182000     -2.37706900     -0.16396500
     H     -1.03102100      2.46224600      0.10861600
     H      4.14897400     -2.48451200     -0.44165800
     H      3.07934400      0.41598900     -0.35770900
     H     -0.38911800     -1.24604400      0.05707300
     H      1.17432300      1.45838200     -0.10896100
     H     -1.82609700      0.77513800      0.18420900
     H      5.11567800     -0.89287300     -0.57742500
