12
b3lypvdz=-232.108942472905 
     C      5.31975600      0.82037600     -0.59882100
     C      5.35088500     -0.57829900     -0.59537400
     C      6.50886900      1.54589900     -0.72825800
     C      6.57127100     -1.25058500     -0.72165500
     C      7.72927300      0.87360500     -0.85443700
     C      7.76040800     -0.52506600     -0.85097700
     H      6.48410500      2.63917200     -0.73099500
     H      6.59607300     -2.34385900     -0.71912800
     H      8.65722300      1.44162700     -0.95934300
     H      8.71275500     -1.05184900     -0.95323900
     H      4.36744000      1.34719800     -0.49645800
     H      4.42294100     -1.14632000     -0.49041400
