164
b3lypvdz=-5222.262747
O      -6.07451778     13.21837799      9.59385922
C      -5.79602558     11.89958937      9.41272716
C      -4.60890537     11.30574211      9.86916189
C      -4.37984462      9.94712308      9.65212232
C      -5.33581226      9.18971628      8.97157034
C      -6.53250672      9.76909149      8.53208921
C      -6.76047634     11.12474027      8.74719327
S      -5.04944272      7.42514070      8.71598938
O      -4.02001326      7.00260442      9.70806664
O      -6.38598661      6.77114600      8.62708856
C      -4.29142719      7.30208651      7.07992317
C      -2.89948101      7.38578465      6.95356641
C      -2.31917986      7.26707707      5.69490574
C      -3.12914073      7.05735279      4.56686652
C      -4.52152374      6.95719523      4.69909725
C      -5.09982194      7.07483858      5.96473456
O      -2.46451907      6.98112350      3.36857309
C      -3.13379870      6.55987212      2.22443660
C      -3.46702833      5.21319002      2.04633091
C      -4.06046086      4.80847528      0.85192319
C      -4.33180666      5.72021629     -0.18690517
C      -3.97820580      7.06129673      0.01893609
C      -3.38484198      7.48458759      1.21490332
C      -5.03495313      5.22373678     -1.46817791
C      -6.49924036      4.88891777     -1.09725786
C      -5.07109573      6.30440382     -2.57493144
C      -4.27887011      4.00294933     -2.03426588
C      -4.91682086      2.80448764     -2.38374120
C      -4.20579509      1.73422440     -2.94076759
C      -2.83737059      1.85690110     -3.16484158
C      -2.17276284      3.04257698     -2.83211294
C      -2.89291765      4.09422466     -2.26849831
O      -2.17908124      0.81572075     -3.80821301
C      -1.16006396      0.14052609     -3.18414874
C      -0.34983229     -0.64099609     -4.02285730
C       0.68548353     -1.39641759     -3.48083562
C       0.90257209     -1.37282288     -2.09831711
C       0.11217567     -0.58249906     -1.26122311
C      -0.92935780      0.17459868     -1.80108232
S       2.26341535     -2.33343374     -1.39579047
O       3.24815281     -2.55872312     -2.49158839
O       2.63789355     -1.68589477     -0.10653328
C       1.53983525     -3.94008269     -0.99336913
C       1.53590415     -4.95538692     -1.95677683
C       0.98421371     -6.19342759     -1.64202252
C       0.45210101     -6.41813953     -0.36234846
C       0.48604303     -5.40823032      0.61035261
C       1.03562827     -4.16562424      0.28928081
O      -0.03452392     -7.68163322     -0.13861418
C      -0.85304513     -7.94473559      0.95296176
C      -0.42931022     -8.90503441      1.87443940
C      -1.26939068     -9.26508574      2.92749834
C      -2.53651293     -8.67673611      3.09680341
C      -2.93427462     -7.71525614      2.15539401
C      -2.10837217     -7.35134761      1.08556525
C      -3.40438574     -9.07873205      4.30827186
C      -2.70936035     -8.54250034      5.58225688
C      -4.81847068     -8.45365291      4.25184975
C      -3.57500234    -10.61319484      4.33299872
C      -3.36158074    -11.38645632      5.48446448
C      -3.57554733    -12.76961443      5.48653586
C      -4.00437647    -13.40081075      4.31968179
C      -4.22591733    -12.65800772      3.15823590
C      -4.01300847    -11.27967335      3.17361727
O      -4.30134923    -14.75964661      4.30870057
C      -3.29231984    -15.68755103      4.37711582
C      -3.70192407    -17.01100318      4.60702777
C      -2.75623973    -18.02967405      4.66705195
C      -1.40215979    -17.72246528      4.48855152
C      -0.98764847    -16.40613742      4.27734043
C      -1.93381919    -15.38119177      4.21377769
S      -0.16561283    -19.03618141      4.60056617
O      -0.75426829    -20.12096328      5.43671709
O       1.13157980    -18.38438652      4.93930362
C      -0.01262506    -19.68460677      2.92143184
C      -0.76833252    -20.79537519      2.54238914
C      -0.64036495    -21.31619379      1.25283141
C       0.25572664    -20.71847568      0.35498004
C       1.02743191    -19.61233805      0.74852206
C       0.89807511    -19.09788097      2.03403101
O       0.44649018    -21.14095993     -0.93548848
C      -0.16362336    -22.31131323     -1.38083526
C       0.42500649    -23.54867194     -1.12870148
C      -0.15451958    -24.70909612     -1.65513283
C      -1.31750773    -24.65616404     -2.43845456
C      -1.88272413    -23.39004920     -2.68049009
C      -1.31987040    -22.22519879     -2.15898183
C      -2.01374224    -25.91721668     -2.99290675
C      -3.30322510    -26.13464144     -2.16580239
C      -1.14269447    -27.18630577     -2.83633328
C      -2.30236643    -25.73388440     -4.49861858
C      -3.56429047    -25.96527405     -5.06576409
C      -3.77299597    -25.83478603     -6.44505151
C      -2.72213711    -25.47040050     -7.28722724
C      -1.45736479    -25.23402092     -6.73660370
C      -1.25428795    -25.36308409     -5.36225501
H      -5.34183378     13.63379205     10.07337487
H      -3.86802142     11.90682137     10.40543052
H      -3.47479836      9.46593147     10.02526641
H      -7.28627730      9.15030920      8.04308737
H      -7.68461906     11.60428356      8.41981050
H      -2.28050776      7.51917196      7.84188685
H      -1.23765217      7.32260050      5.55960232
H      -5.14753459      6.78183675      3.82410889
H      -6.17844144      6.97272558      6.09239288
H      -3.25084978      4.49264290      2.83765809
H      -4.30288025      3.75177220      0.71735450
H      -4.16095983      7.80640582     -0.75548761
H      -3.10571866      8.52901552      1.36590088
H      -6.98046998      5.77810635     -0.66167393
H      -6.56350611      4.07756255     -0.35637159
H      -7.08236504      4.59476314     -1.98452739
H      -5.66106132      7.18113162     -2.26306977
H      -5.54226796      5.88913997     -3.47898964
H      -4.06267062      6.64695800     -2.85204749
H      -5.98846613      2.68205769     -2.22625999
H      -4.70909812      0.80480670     -3.21351920
H      -1.10090417      3.13669673     -3.01725461
H      -2.36057166      5.01019855     -2.00189294
H      -0.54547278     -0.63199552     -5.09650666
H       1.34270288     -1.98490451     -4.12242436
H       0.32346107     -0.54889731     -0.19139403
H      -1.55290185      0.79123409     -1.15339408
H       1.97782512     -4.77442519     -2.93751801
H       0.96475428     -7.00845993     -2.36754653
H       0.09998845     -5.59562391      1.61254172
H       1.09727595     -3.37601429      1.03957458
H       0.55079254     -9.36840081      1.74721765
H      -0.93137801    -10.02997966      3.63047546
H      -3.90955883     -7.23479744      2.23573227
H      -2.44254365     -6.61343503      0.35360363
H      -2.56726482     -7.45438114      5.49417793
H      -1.71900837     -8.99689919      5.73701008
H      -3.31817401     -8.72711753      6.48158820
H      -4.77405386     -7.35339012      4.29111805
H      -5.40645591     -8.79604268      5.11717063
H      -5.36467667     -8.74640479      3.34232952
H      -3.02735597    -10.91785280      6.41030096
H      -3.41369859    -13.35636542      6.39291866
H      -4.56693061    -13.16804013      2.25534741
H      -4.17905706    -10.71169198      2.25534987
H      -4.76535449    -17.21316860      4.74615129
H      -3.05653372    -19.05759294      4.87486080
H       0.07615057    -16.18408884      4.18150142
H      -1.61734344    -14.35154057      4.04690662
H      -1.44053338    -21.26172109      3.26412673
H      -1.22504138    -22.18532255      0.95124718
H       1.72940569    -19.18274587      0.03172080
H       1.51293300    -18.25884836      2.36257894
H       1.33744387    -23.60055886     -0.53135446
H       0.32671424    -25.66447052     -1.44499010
H      -2.77655189    -23.31066744     -3.30330479
H      -1.75914631    -21.24613087     -2.35967746
H      -3.04635974    -26.21654949     -1.09825465
H      -3.81704912    -27.06450703     -2.45750302
H      -4.01166557    -25.29944482     -2.27582429
H      -0.96439978    -27.42550249     -1.77561520
H      -0.16777266    -27.08361040     -3.33642603
H      -1.66103033    -28.04517162     -3.28957802
H      -4.40748299    -26.25232647     -4.43663464
H      -4.76806358    -26.01978599     -6.85777314
H      -2.88483711    -25.36765613     -8.36277268
H      -0.62403448    -24.94330549     -7.38137991
H      -0.26314813    -25.16057640     -4.94880184
