12
b3lypvdz=-343.457100643487 
O         -18.56229400    -10.71603200    -12.85499400
C         -18.97423500    -12.05493400    -13.01662700
C         -20.07863100    -12.42956200    -12.01949100
C         -19.44581900    -12.26431500    -14.44863000
O         -19.59319800    -11.35601800    -15.23910200
O         -19.70247100    -13.55382800    -14.74315500
H         -18.87075700    -10.25194300    -13.65502500
H         -18.10447900    -12.72137900    -12.85748300
H         -20.96979800    -11.80274100    -12.18728800
H         -20.36339000    -13.48886300    -12.11361500
H         -19.71907200    -12.24436400    -10.99607600
H         -20.01625500    -13.56712000    -15.66701400
