13
b3lypvdz=-381.513165229941 
C           1.15962600     -2.75258800     -1.86689500
O           1.08109500     -2.30970900     -2.98292200
O           0.15195200     -2.85903900     -0.97285300
C          -1.17265800     -2.50584500     -1.41535900
C          -1.35758000     -1.02242600     -1.73504300
C          -1.65774500     -3.43651600     -2.52622600
O          -1.10534700     -4.45312800     -2.85981600
H           2.08579000     -3.12858400     -1.38668400
H          -1.80037000     -2.76069900     -0.54144100
H          -0.80162600     -0.73467700     -2.63670400
H          -2.42775500     -0.80769300     -1.88759000
H          -1.00834400     -0.41212900     -0.88856900
H          -2.63013900     -3.11046600     -2.98219600
