11
b3lypvdz=-268.247331351182 
C         -17.49116700    -10.28448600    -13.36904900
O         -16.75757000    -10.95302300    -14.05161200
O         -18.62338200    -10.70424000    -12.77888500
C         -18.96470600    -12.09874500    -12.97604100
C         -20.08167000    -12.43934700    -12.00916800
H         -17.33866900     -9.21219300    -13.12405400
H         -19.27619200    -12.23677000    -14.02542700
H         -18.06708700    -12.71458900    -12.81010700
H         -20.96640000    -11.80721000    -12.18499500
H         -20.37733000    -13.49312800    -12.13580400
H         -19.75692700    -12.29226900    -10.96635700
