11
b3lypvdz=-268.253757190671 
C          -8.53786600     -1.78273700     -7.05665700
C          -9.29805600     -3.00861200     -7.50346200
O          -8.88527300     -3.86745600     -8.24846200
O         -10.53854900     -3.03050500     -6.95597800
C         -11.35136200     -4.15527500     -7.32552900
H          -7.52141400     -1.81420000     -7.46656200
H          -9.05366100     -0.87543000     -7.40899500
H          -8.50276000     -1.73670100     -5.95715800
H         -12.31815600     -3.99876200     -6.83069600
H         -11.48124600     -4.20358400     -8.41750900
H         -10.89525700     -5.09673700     -6.98229200
