8
b3lypvdz=-228.936100144304 
O          -7.20759200     -1.76924500     -7.58192100
C          -8.51585000     -1.76768800     -7.09147400
C          -9.26969100     -3.01245100     -7.49156100
O          -8.74415200     -3.88269100     -8.15338200
H          -7.11794900     -2.62266900     -8.04845600
H          -9.09483400     -0.89410500     -7.46351500
H          -8.54763600     -1.69992700     -5.98134200
H         -10.33089600     -3.09232300     -7.14864800
