11
b3lypvdz=-268.227017512446 
O          -4.20301700     -3.64983100     -6.44235900
C          -5.04456100     -2.98859200     -7.35172600
C          -4.41786400     -1.67627900     -7.83990200
C          -6.40329200     -2.74330900     -6.72502900
O          -6.66214400     -3.11478100     -5.60023400
H          -4.75505800     -3.79845800     -5.65005100
H          -5.24027800     -3.63267800     -8.24111500
H          -3.44558500     -1.88999700     -8.30824700
H          -5.05953000     -1.17402000     -8.58360500
H          -4.24709800     -0.99536600     -6.99010000
H          -7.15657200     -2.20708800     -7.35453100
