14
b3lypvdz=-307.544068826303 
C          -1.15471200     -2.50774000     -1.41614500
C          -1.60552600     -3.47470000     -2.48525400
O          -1.07095800     -4.52725900     -2.75102000
O          -2.71095400     -3.00523100     -3.11717500
C          -3.26330600     -3.84093400     -4.16042800
C          -4.23447200     -4.86639700     -3.59723000
H          -0.18042300     -2.82509200     -1.02548500
H          -1.09165400     -1.48705400     -1.82187300
H          -1.89197500     -2.49371600     -0.59699600
H          -3.77149900     -3.13620500     -4.83528400
H          -2.43865800     -4.33060100     -4.69967800
H          -5.03856000     -4.37567600     -3.02538400
H          -4.69459800     -5.43871800     -4.41941700
H          -3.71220500     -5.57607900     -2.93713200
