13
b3lypvdz=-381.524379789863 
C          -8.51194400     -1.78881700     -7.02521100
C          -9.25518600     -3.00947700     -7.49865200
O          -8.84690000     -3.84493100     -8.26857600
O         -10.49145400     -3.06993500     -6.91782900
C         -11.33124800     -4.11821800     -7.38009400
C         -12.00143600     -3.78157000     -8.69951400
O         -11.80999000     -2.76814800     -9.32259900
H          -7.52100300     -1.76035900     -7.49256000
H          -9.08443400     -0.88601800     -7.28876300
H          -8.41423700     -1.80840300     -5.92837000
H         -12.11098300     -4.26025800     -6.61332000
H         -10.77506200     -5.06453000     -7.49934600
H         -12.71312200     -4.57563700     -9.05356500
