15
b3lypvdz=-382.729755682244 
O         -13.68488700     -5.92635500    -12.30359900
C         -14.10061400     -7.06864600    -13.00148500
C         -15.58101200     -7.32425900    -12.78512800
O         -16.27769300     -6.58147000    -12.12187600
O         -16.00357900     -8.43695400    -13.40196400
C         -17.41004100     -8.77363600    -13.26225000
C         -18.25420000     -8.07500300    -14.31445900
H         -14.49801300     -5.56884100    -11.90037900
H         -13.93306200     -6.97220200    -14.09356100
H         -13.54146900     -7.96720200    -12.67663000
H         -17.43603000     -9.86620100    -13.38190000
H         -17.73603700     -8.50728300    -12.24610100
H         -17.89206100     -8.30813600    -15.32875100
H         -19.30061500     -8.41365300    -14.23558000
H         -18.23608700     -6.98355800    -14.17053700
