15
b3lypvdz=-382.729993050895 
O         -10.46621000     -3.09161400     -6.93920500
C         -11.33901600     -4.13442200     -7.31087700
C         -12.44034100     -4.32108800     -6.26309300
C         -11.90994900     -3.83533100     -8.69367900
O         -11.62588500     -2.83371900     -9.32029600
O         -12.73915500     -4.79270800     -9.13592300
C         -13.30359300     -4.57464700    -10.44277000
H         -10.46808400     -2.47416000     -7.69437800
H         -10.77488000     -5.08560300     -7.40810600
H         -13.04625100     -3.40383900     -6.18166900
H         -13.09626800     -5.16628000     -6.52121400
H         -11.97798700     -4.51235100     -5.28314100
H         -13.90878800     -3.65563200    -10.45387800
H         -13.93002800     -5.45263600    -10.64243800
H         -12.50756600     -4.48537000    -11.19713400
