11
b3lypvdz=-268.247308413859 
C         -13.54257000     -5.99632500    -11.02084700
O         -13.79465200     -6.96644500    -10.35263000
O         -13.62664600     -5.91314500    -12.35943700
C         -14.03981600     -7.11824600    -13.05040800
C         -13.76281900     -6.91742700    -14.52776000
H         -13.19999300     -5.01730800    -10.62458800
H         -15.11304400     -7.28139500    -12.85511600
H         -13.48913600     -7.97643300    -12.63533700
H         -12.68796900     -6.75447500    -14.70634000
H         -14.07813400     -7.80952600    -15.09268900
H         -14.31152000     -6.04677500    -14.92044800
