12
b3lypvdz=-343.439164476986 
O         -13.69289100     -5.91234400    -12.31697800
C         -14.10162800     -7.05854800    -13.01314400
C         -15.57956900     -7.32175900    -12.79401800
O         -16.28663100     -6.58300600    -12.13918000
O         -16.00096600     -8.43939000    -13.40328700
C         -17.40006000     -8.74437700    -13.24826700
H         -14.50894600     -5.55304400    -11.92156400
H         -13.93512900     -6.96208600    -14.10539400
H         -13.53573200     -7.95204000    -12.68640400
H         -18.02039800     -7.94268900    -13.67654400
H         -17.55716100     -9.68501800    -13.78957500
H         -17.65478800     -8.86139900    -12.18444600
