11
b3lypvdz=-417.457451350846 
C         -17.47002500    -10.27404900    -13.30768200
O         -16.66673300    -10.97989300    -13.85597900
O         -18.67041800    -10.67539100    -12.82713600
C         -18.99489100    -12.04136500    -13.07130200
C         -19.46962300    -12.24863800    -14.50196400
O         -19.61082000    -11.38666500    -15.33026200
O         -19.73142100    -13.55908500    -14.71106200
H         -17.35004700     -9.19355400    -13.09284300
H         -19.81189300    -12.29189800    -12.37997900
H         -18.13709300    -12.70259700    -12.87708400
H         -20.03913700    -13.63146400    -15.63390900
