11
b3lypvdz=-268.226939648479 
O         -18.66183400    -10.66034300    -12.84038800
C         -18.99880700    -12.01366500    -13.02102300
C         -20.06368800    -12.46981600    -12.01346600
C         -19.48401100    -12.24704400    -14.43857500
O         -19.58522600    -11.34003100    -15.23590100
H         -18.89556100    -10.22872200    -13.68508800
H         -18.09387900    -12.64738000    -12.88913800
H         -20.98425100    -11.87714100    -12.14033900
H         -20.30774000    -13.53923100    -12.13180900
H         -19.69289600    -12.30994500    -10.98981200
H         -19.75740700    -13.29808200    -14.70876100
