14
b3lypvdz=-307.53854551427 
C         -14.10437600     -7.08615200    -13.03486700
C         -13.75279400     -6.93228400    -14.52222600
C         -15.58459700     -7.30986700    -12.79952900
O         -16.32262800     -6.57917700    -12.17833100
O         -16.00272100     -8.45702200    -13.39175300
C         -17.40001200     -8.75188400    -13.24316700
H         -13.82285500     -6.18986600    -12.46352800
H         -13.55807200     -7.94682700    -12.61161700
H         -12.67448700     -6.74501600    -14.64628200
H         -14.01208300     -7.84114000    -15.08662900
H         -14.29610400     -6.08501000    -14.97211200
H         -18.01733100     -7.96031900    -13.69515600
H         -17.55949700     -9.70497200    -13.76339000
H         -17.66914100     -8.84446500    -12.18001300
