12
b3lypvdz=-343.439175137425 
O           0.09554900     -2.93823600     -0.87969600
C          -1.14342800     -2.51962200     -1.38439800
C          -1.59295600     -3.41966700     -2.52020400
O          -0.93887100     -4.37069100     -2.89805000
O          -2.76997300     -3.04800600     -3.04107800
C          -3.25737600     -3.86356100     -4.12496000
H           0.32892800     -3.72579000     -1.40600300
H          -1.09937900     -1.48039300     -1.76558000
H          -1.93038500     -2.53528600     -0.60340800
H          -3.39829000     -4.90269200     -3.79234000
H          -4.21537400     -3.41917300     -4.41936600
H          -2.54824500     -3.85008300     -4.96631600
