9
b3lypvdz=-304.166220091221 
O         -10.45128400     -3.10050600     -6.91265500
C         -11.33857200     -4.10540300     -7.32369700
C         -11.93024400     -3.78572100     -8.68122500
O         -11.74950800     -2.73068300     -9.24989500
O         -12.69285700     -4.78210400     -9.17140300
H         -10.59926500     -2.35762800     -7.52599000
H         -12.18746900     -4.23816300     -6.61999700
H         -10.82030100     -5.08010400     -7.38130700
H         -13.04040200     -4.46778800    -10.02723000
