17
b3lypvdz=-346.828792810581 
C         -17.37280100     -8.78515100    -13.29380700
C         -18.28300000     -8.03762600    -14.28089400
C         -17.51836900    -10.28684200    -13.43015100
O         -16.74622400    -11.02095600    -14.00620000
O         -18.66134900    -10.71672200    -12.83969100
C         -18.93465200    -12.13329000    -12.93892100
C         -20.10639000    -12.43874500    -12.02783800
H         -16.31633400     -8.54377900    -13.48068800
H         -17.62631200     -8.49703100    -12.26096100
H         -18.04511400     -8.31282900    -15.32163000
H         -19.34253100     -8.27598200    -14.09554600
H         -18.15235100     -6.94836700    -14.17914300
H         -19.15837800    -12.37664400    -13.99175300
H         -18.02813100    -12.69274000    -12.65979000
H         -20.99706300    -11.86071800    -12.32037700
H         -20.35641800    -13.51046200    -12.08412100
H         -19.86528300    -12.19381600    -10.98098700
