15
b3lypvdz=-382.729855058354 
C         -13.30869000     -5.75923600    -11.19335800
O         -12.74568300     -6.71428500    -10.69632000
O         -13.91248300     -5.77676600    -12.39113100
C         -13.85785900     -7.02639400    -13.10565400
O         -12.58974300     -4.41141700     -9.35391200
C         -13.41833300     -4.40700600    -10.49416900
C         -14.88027100     -4.10166300    -10.13511100
H         -14.27678300     -6.81558500    -14.09693200
H         -14.45856600     -7.79101600    -12.58944100
H         -12.82040100     -7.38205700    -13.18322000
H         -12.35461500     -5.34772800     -9.21409100
H         -13.05679600     -3.63707500    -11.20176900
H         -14.92763200     -3.13618900     -9.60902600
H         -15.51169400     -4.05101600    -11.03546000
H         -15.27335000     -4.88036400     -9.46050500
