9
b3lypvdz=-154.948408946313 
C         -17.39310700     -8.73492800    -13.25107000
C         -18.26887100     -8.10045000    -14.32719700
O         -16.01085400     -8.43331500    -13.41591400
H         -17.46177300     -9.83419600    -13.30657100
H         -17.74681400     -8.43620800    -12.24144900
H         -17.92326400     -8.40204500    -15.33008200
H         -19.32572600     -8.39862400    -14.21466500
H         -18.22098900     -6.99682200    -14.27323300
H         -15.91830100     -7.47131400    -13.34901900
