17
b3lypvdz=-346.828767901044 
C          -3.31886000     -3.75879600     -4.13266900
C          -4.13525800     -4.95289500     -3.61223100
C          -4.13827100     -2.88339000     -5.05841300
O          -4.63163300     -1.81668900     -4.76333700
O          -4.28343500     -3.47289700     -6.27305300
C          -5.09832000     -2.76809400     -7.24204800
C          -4.29148500     -1.72848100     -8.00381100
H          -2.98283100     -3.12461100     -3.29996200
H          -2.43569400     -4.12212700     -4.68207800
H          -5.02710700     -4.61012200     -3.06312300
H          -4.46791600     -5.59295000     -4.44421200
H          -3.52900400     -5.56650900     -2.92731300
H          -5.94818100     -2.30391100     -6.72048800
H          -5.46583100     -3.55954000     -7.91100800
H          -3.40989100     -2.18621100     -8.47990500
H          -4.91561000     -1.27969000     -8.79466400
H          -3.95757500     -0.92508700     -7.33098600
