6
b3lypvdz=-115.656502841726 
O           0.17801200     -2.80776200     -0.97319300
C          -1.13763400     -2.50142500     -1.40745600
H           0.77170500     -2.65068300     -1.72132800
H          -1.25894500     -1.44001200     -1.70595300
H          -1.47635900     -3.14008100     -2.24885800
H          -1.80687800     -2.68893600     -0.55271200
