13
b3lypvdz=-381.513180986166 
C          -3.93557200     -2.92545200     -5.13674700
O          -4.26520600     -1.80497100     -4.84742300
O          -4.19601800     -3.56391500     -6.29883000
C          -5.03635800     -2.89163300     -7.25647000
C          -4.42001000     -1.63174100     -7.86562700
C          -6.44748700     -2.67903600     -6.70987100
O          -6.87300400     -3.17314900     -5.69763400
H          -3.34378900     -3.60899900     -4.49412400
H          -5.15462100     -3.64863000     -8.05383600
H          -3.41446300     -1.85873300     -8.24965400
H          -5.03634600     -1.29069000     -8.71355900
H          -4.34560200     -0.82383400     -7.12600300
H          -7.08982500     -2.04631800     -7.37892200
