11
b3lypvdz=-268.247225278183 
C         -15.60977000     -7.28541400    -12.79895600
O         -16.29617000     -6.52542400    -12.16461600
O         -16.01737600     -8.42002400    -13.39509000
C         -17.42048900     -8.75792900    -13.25260900
C         -18.26268300     -8.09988600    -14.33413100
H         -14.52161400     -7.16164400    -12.98418500
H         -17.44606000     -9.85461900    -13.33434300
H         -17.75787000     -8.45995400    -12.24854000
H         -17.89173900     -8.36701800    -15.33713800
H         -19.30938700     -8.43670400    -14.25078300
H         -18.24594200     -7.00338500    -14.23100900
