11
b3lypvdz=-417.455138944518 
C         -15.62359900     -7.21990200    -12.90618300
O         -16.32128600     -6.46837600    -12.27615100
O         -15.99553200     -8.42485300    -13.38662300
C         -17.33708600     -8.81447200    -13.09554000
C         -17.45376200    -10.31347200    -13.28092300
O         -16.55620000    -11.08546900    -13.49955900
O         -18.75141900    -10.67738000    -13.14813200
H         -14.56712700     -7.04338000    -13.19045700
H         -18.04880900     -8.30312200    -13.76474600
H         -17.61279900     -8.54052700    -12.06481500
H         -18.77668000    -11.64634800    -13.25507100
