14
b3lypvdz=-307.538522182767 
C          -5.01943600     -2.89573800     -7.25842700
C          -4.42483500     -1.63632500     -7.89829500
C          -6.42833800     -2.74777400     -6.71517000
O          -6.85404000     -3.29658300     -5.72396100
O          -7.18396600     -1.93363000     -7.49248200
C          -8.54340800     -1.76168900     -7.06226300
H          -4.40315100     -3.25902400     -6.42240200
H          -5.05409800     -3.71433400     -8.00146700
H          -3.39169600     -1.82754100     -8.22856800
H          -5.01198600     -1.31551200     -8.77127400
H          -4.40169900     -0.79779700     -7.18303000
H          -9.00981100     -1.10509400     -7.80806800
H          -9.06533900     -2.72972300     -7.01921200
H          -8.58049600     -1.29703500     -6.06468200
