9
b3lypvdz=-304.166231311889 
O         -18.68859100    -10.68467800    -12.80163100
C         -18.99517800    -12.03135000    -13.02937100
C         -19.48881700    -12.24324100    -14.44656400
O         -19.69738400    -11.32743300    -15.21514900
O         -19.68317000    -13.53663400    -14.75360100
H         -19.03415700    -10.20853800    -13.57933100
H         -19.79435100    -12.40223300    -12.35298200
H         -18.11667800    -12.67904100    -12.85495700
H         -20.01937300    -13.56055100    -15.66911500
