14
b3lypvdz=-307.538540326684 
C           2.44607300     -3.26513500     -1.37905600
C           2.43528500     -4.76582900     -1.05059200
C           1.11721800     -2.77722000     -1.91913500
O           0.91692100     -2.35097400     -3.03417900
O           0.14364500     -2.88525200     -0.97976100
C          -1.16514300     -2.46982400     -1.40066000
H           3.20629400     -3.02989700     -2.13752700
H           2.67686300     -2.68861900     -0.46700000
H           1.68190200     -4.99439800     -0.28128600
H           3.42034800     -5.08634500     -0.67625800
H           2.20509100     -5.36633300     -1.94607400
H          -1.16677600     -1.40259100     -1.67097500
H          -1.49895600     -3.05186600     -2.27317300
H          -1.82396600     -2.64961700     -0.54132600
