9
b3lypvdz=-154.947738728929 
O         -18.66262000    -10.68959700    -12.81590100
C         -18.99160900    -12.06295300    -13.02615600
C         -20.05092700    -12.44543100    -12.00932100
H         -17.98303300    -10.45063100    -13.46161100
H         -19.37907200    -12.22341100    -14.05486900
H         -18.09615400    -12.70764400    -12.90032900
H         -20.94821500    -11.81658800    -12.13124100
H         -20.34308800    -13.50199200    -12.12636100
H         -19.67318100    -12.29605300    -10.98390900
