5
b3lypvdz=-40.480370981966 
C           2.46651800     -3.25488800     -1.37488200
H           2.40619100     -4.33091900     -1.15368600
H           1.49812200     -2.90557200     -1.76320800
H           3.24934700     -3.07731200     -2.12783300
H           2.71132300     -2.70480900     -0.45439200
