8
b3lypvdz=-228.981312441933 
O         -19.62480300    -11.35489600    -15.27287100
O         -19.73325600    -13.54026300    -14.73875300
C         -18.99386300    -12.06153400    -13.03975000
C         -19.47428800    -12.23535500    -14.45906300
H         -20.03665100    -13.55304300    -15.66549400
H         -18.79457900    -11.00056700    -12.84708100
H         -19.75492200    -12.43685100    -12.33705600
H         -18.07863800    -12.65299100    -12.87923100
