17
b3lypvdz=-346.828852989726 
C          -8.52590400     -1.79381900     -7.12564100
C          -9.13872400     -0.51886800     -7.72671600
C          -9.28516500     -3.03430900     -7.54975200
O          -8.90882400     -3.84799100     -8.36486300
O         -10.47753000     -3.11293200     -6.90768000
C         -11.31231400     -4.24186100     -7.25483000
C         -12.47863200     -4.26346300     -6.28836000
H          -7.48576500     -1.92137600     -7.45810800
H          -8.54290100     -1.73005700     -6.02553000
H          -9.13272600     -0.55994100     -8.82818900
H         -10.17976600     -0.39058500     -7.39232700
H          -8.56550000      0.36839000     -7.41574800
H         -11.64650300     -4.12621800     -8.29982700
H         -10.70742700     -5.16088000     -7.20538100
H         -13.06096000     -3.33049200     -6.35019300
H         -13.14839300     -5.10518600     -6.52805200
H         -12.12916600     -4.38431200     -5.25080400
