5
b3lypvdz=-189.683636146761 
O         -19.63264300    -11.33350200    -15.25440800
O         -19.72360000    -13.53735600    -14.74112600
C         -19.48182200    -12.23811500    -14.47622700
H         -20.03598000    -13.57445200    -15.66657200
H         -19.12305400    -12.14007500    -13.43046700
