14
b3lypvdz=-307.538419752857 
C          -8.56538500     -1.77210800     -7.06772800
C          -9.08978100     -0.52491000     -7.79835600
C          -9.30886700     -3.02295500     -7.48902400
O          -8.89159400     -3.87805200     -8.23716400
O         -10.54879800     -3.05766900     -6.93867600
C         -11.35750700     -4.18269600     -7.31629300
H          -7.50124400     -1.93665900     -7.29167200
H          -8.68007300     -1.64311300     -5.97884200
H          -8.98670700     -0.63590200     -8.89059000
H         -10.15330000     -0.35329200     -7.56945100
H          -8.52418300      0.36923500     -7.49285400
H         -12.32372400     -4.03569400     -6.81755600
H         -11.48944100     -4.22181000     -8.40836900
H         -10.89519700     -5.12457500     -6.98282600
