12
b3lypvdz=-343.457138778586 
O          -2.51920200     -3.36795500     -3.08710300
C          -3.28248100     -4.04183000     -4.06158400
C          -4.65412400     -4.44827600     -3.50718600
C          -3.42070000     -3.15340300     -5.28928700
O          -2.99330300     -2.01844600     -5.33725600
O          -4.06218800     -3.74842500     -6.31189800
H          -2.34866500     -2.48282800     -3.45924300
H          -2.74754100     -4.95615800     -4.38949800
H          -5.23393500     -3.55332900     -3.22833500
H          -5.22448500     -5.03346800     -4.24520900
H          -4.50717100     -5.05575500     -2.60158300
H          -4.09970400     -3.09362700     -7.03431800
