10
b3lypvdz=-342.226366608123 
C         -17.46787800    -10.27010000    -13.31456100
O         -16.65319900    -10.97544600    -13.84680100
O         -18.66571900    -10.67673300    -12.83200900
C         -18.98845300    -12.04365400    -13.07512500
C         -19.50200000    -12.27763100    -14.48484500
O         -19.58933500    -11.42421500    -15.32957500
H         -17.36062700     -9.18523800    -13.11530700
H         -19.78452600    -12.30684800    -12.35917300
H         -18.12101700    -12.70302200    -12.89790200
H         -19.80804600    -13.34161400    -14.67420100
