12
b3lypvdz=-343.457142634893 
O         -16.13964800     -8.16775400    -13.32614200
C         -17.47567900     -8.61405400    -13.30697400
C         -18.14606500     -8.40872000    -14.67081700
C         -17.50904200    -10.07546800    -12.88245600
O         -16.50749300    -10.72648500    -12.66744700
O         -18.75503900    -10.57149600    -12.76702900
H         -15.60220900     -8.94939300    -13.10035500
H         -18.04919400     -8.05113000    -12.54214400
H         -17.62768500     -8.99970300    -15.44287900
H         -19.20636200     -8.70247300    -14.64169500
H         -18.07454500     -7.34642900    -14.94892500
H         -18.65774000    -11.50259400    -12.49213700
