11
b3lypvdz=-268.24719400718 
C          -4.00184300     -2.90435200     -5.10742100
O          -4.59722000     -1.92977300     -4.72215100
O          -4.10320700     -3.47193500     -6.32167000
C          -5.01790200     -2.84211100     -7.25340600
C          -4.37927900     -1.66113700     -7.96695700
H          -3.27728100     -3.48962500     -4.50262400
H          -5.92650300     -2.53826700     -6.71119000
H          -5.27334600     -3.64260000     -7.96259500
H          -3.43860300     -1.96270600     -8.45539900
H          -5.06541400     -1.28256000     -8.74266700
H          -4.16500300     -0.84193600     -7.26412000
