13
b3lypvdz=-381.521778920407 
C          -1.16389800     -2.53491600     -1.38091800
C          -1.58949000     -3.45642300     -2.49421500
O          -1.04507700     -4.48608100     -2.81618100
O          -2.70760600     -2.97522900     -3.10726600
C          -3.22286900     -3.76127100     -4.17513900
C          -4.00267300     -2.89519700     -5.13682700
O          -4.13862400     -1.70109300     -5.05336200
H          -0.18496000     -2.84967500     -1.00086700
H          -1.13068000     -1.49447100     -1.73676900
H          -1.90671200     -2.57635800     -0.56720600
H          -3.89926200     -4.54981800     -3.78908200
H          -2.41178800     -4.28774300     -4.70898400
H          -4.46186100     -3.49272500     -5.97048500
