15
b3lypvdz=-382.729972399975 
O         -13.70776800     -5.90974800    -12.32426900
C         -14.08322100     -7.07153800    -13.02887800
C         -13.74158000     -6.93730200    -14.51540300
C         -15.56931500     -7.33078300    -12.80138800
O         -16.26443700     -6.61142000    -12.11147900
O         -16.01155500     -8.43114700    -13.42880400
C         -17.40594700     -8.73858300    -13.24084400
H         -14.51619800     -5.61617300    -11.86417200
H         -13.54993400     -7.95500000    -12.61926200
H         -12.66645200     -6.72740400    -14.62006300
H         -13.98191700     -7.85982100    -15.06521300
H         -14.29887100     -6.09624000    -14.95853800
H         -18.03699100     -7.92448900    -13.62778200
H         -17.58093400     -9.66370500    -13.80295700
H         -17.62868000     -8.88434700    -12.17334700
