12
b3lypvdz=-343.457148485679 
O          -4.23146700     -3.67915700     -6.47089000
C          -5.05448900     -2.97374000     -7.37114300
C          -4.38289100     -1.67378600     -7.83115700
C          -6.39931800     -2.70291800     -6.71111200
O          -6.64569900     -3.00466600     -5.56155800
O          -7.28415300     -2.09819700     -7.52494200
H          -4.74792600     -3.74872900     -5.64662200
H          -5.26107800     -3.60131400     -8.26230400
H          -3.40979000     -1.91362900     -8.28495000
H          -5.00386900     -1.14537300     -8.57080400
H          -4.20326800     -1.01241000     -6.96796900
H          -8.09835200     -1.96828200     -7.00325000
