8
b3lypvdz=-228.956823771744 
C         -17.40006500     -8.75549000    -13.24324300
C         -15.61550600     -7.28848300    -12.80762800
O         -16.32341900     -6.54323200    -12.18042300
O         -16.00591700     -8.43163700    -13.39767100
H         -18.03279000     -7.97497400    -13.69293400
H         -17.54239400     -9.71020600    -13.76454900
H         -17.66072500     -8.85609800    -12.17877900
H         -14.53058300     -7.14418000    -12.99417300
