9
b3lypvdz=-304.166243049362 
O         -13.66700400     -5.92544300    -12.29908900
C         -14.10234900     -7.04723000    -13.01840600
C         -15.58101600     -7.29229400    -12.79913600
O         -16.29280900     -6.53225900    -12.17855500
O         -16.01908800     -8.42430800    -13.38269400
H         -14.47989400     -5.49298900    -11.97915200
H         -13.94584800     -6.93668300    -14.11229400
H         -13.54302900     -7.94959800    -12.70913400
H         -16.97586400     -8.47789500    -13.19884100
