11
b3lypvdz=-268.265916885665 
C          -8.54329900     -1.76818500     -7.06801700
C          -9.12563900     -0.54726700     -7.80034200
C          -9.25548400     -3.04566400     -7.45487100
O          -8.82383200     -3.90855600     -8.18435200
O         -10.49502000     -3.11573400     -6.90067400
H          -7.47996400     -1.90141000     -7.31367400
H          -8.63829400     -1.62974700     -5.97815900
H          -9.04100100     -0.66639500     -8.89318500
H         -10.18916200     -0.40789600     -7.55099500
H          -8.58324500      0.36741500     -7.51479900
H         -10.88315900     -3.94736100     -7.23133200
