13
b3lypvdz=-381.516346075512 
C         -13.50695600     -5.98477700    -11.01875800
O         -13.61420800     -6.98973600    -10.36674500
O         -13.67091300     -5.88864000    -12.35725000
C         -14.09945900     -7.08291000    -13.02733800
C         -13.76480100     -6.92893700    -14.50877500
C         -15.59477700     -7.30233600    -12.81907700
O         -16.31231100     -6.57229500    -12.18457900
H         -13.23503700     -4.98466800    -10.62599500
H         -13.57809100     -7.95732400    -12.59812800
H         -12.67885900     -6.81328500    -14.63965700
H         -14.08930200     -7.81820200    -15.07213700
H         -14.26454100     -6.04266500    -14.92970100
H         -15.98624500     -8.22192400    -13.33106200
