11
b3lypvdz=-268.227013174231 
O         -16.09422100     -8.26999800    -13.28178600
C         -17.43047000     -8.70047800    -13.25193500
C         -18.19332800     -8.22935200    -14.49712700
C         -17.49274500    -10.20912700    -13.11869800
O         -16.48820400    -10.88354200    -13.03262400
H         -15.56449600     -9.08219100    -13.16276800
H         -17.95264600     -8.29610600    -12.35398000
H         -17.73496500     -8.64746600    -15.40746300
H         -19.25372600     -8.52963300    -14.45524200
H         -18.14415000     -7.13203100    -14.56144000
H         -18.51095000    -10.67117700    -13.09893700
