10
b3lypvdz=-193.034303225455 
C         -17.35664700     -8.78081000    -13.30520700
C         -18.29604600     -8.08822200    -14.30276000
C         -17.48058000    -10.28753000    -13.35301700
O         -16.56111200    -11.05903500    -13.49037200
H         -16.30169700     -8.51301300    -13.47435200
H         -17.62484500     -8.47111400    -12.27586500
H         -18.02228100     -8.32818800    -15.34355900
H         -19.34362100     -8.39995700    -14.14964400
H         -18.25333600     -6.99399100    -14.18507800
H         -18.53713200    -10.66384100    -13.24844600
