12
b3lypvdz=-343.43917199092 
O         -16.16228300     -8.26976500    -13.61508500
C         -17.47935700     -8.74905100    -13.60777200
C         -17.52127000    -10.19789900    -13.15862400
O         -16.52078800    -10.81586600    -12.85472200
O         -18.76371600    -10.69934300    -13.13934700
C         -18.87294900    -12.07516900    -12.72395500
H         -15.62026000     -9.02107600    -13.30906800
H         -17.94062000     -8.69092800    -14.61352000
H         -18.12777000     -8.15954900    -12.92968800
H         -19.94370900    -12.30947200    -12.75837600
H         -18.31159300    -12.72919700    -13.40769600
H         -18.48108400    -12.20218500    -11.70384800
