13
b3lypvdz=-381.524364324134 
C          -5.01010800     -2.86882500     -7.25590100
C          -6.38914500     -2.73413000     -6.66705200
O          -6.78930500     -3.24651100     -5.64990400
O          -7.16510100     -1.92258800     -7.44743700
C          -8.52852000     -1.83235900     -7.05891600
C          -9.33715200     -3.04278600     -7.48944600
O          -8.88495800     -3.99048000     -8.08023600
H          -4.37430200     -3.44274200     -6.57119600
H          -4.57615100     -1.87510600     -7.44463300
H          -5.08156000     -3.38560600     -8.22596800
H          -8.93744900     -0.94279100     -7.56700200
H          -8.63775400     -1.69819500     -5.96872600
H         -10.42309300     -2.97498100     -7.20978200
