11
b3lypvdz=-417.457376902633 
C          -3.86518000     -2.90500900     -5.14951200
O          -4.11051800     -1.74921700     -4.92645200
O          -4.25118200     -3.59062100     -6.25070500
C          -5.05908400     -2.85511700     -7.16675100
C          -6.48939800     -2.72227000     -6.66111000
O          -6.94486700     -3.26089900     -5.68506200
O          -7.19540400     -1.92287800     -7.49130700
H          -3.27755200     -3.58570100     -4.50211700
H          -4.64701900     -1.85363200     -7.35849700
H          -5.06209700     -3.43399100     -8.10108900
H          -8.10209900     -1.88456400     -7.13349900
