13
b3lypvdz=-381.514325025566 
C         -15.60039100     -7.28084400    -12.82519500
O         -16.28533300     -6.56167500    -12.14327300
O         -16.00518200     -8.40367600    -13.45021600
C         -17.38445300     -8.77422200    -13.26676700
C         -18.27668000     -8.10162500    -14.31400200
C         -17.47946200    -10.28854300    -13.35704600
O         -16.56509900    -11.03523200    -13.59188400
H         -14.52288600     -7.13032100    -13.04052200
H         -17.71108100     -8.46027200    -12.25953500
H         -17.91934500     -8.33771400    -15.32884700
H         -19.31748800     -8.45069400    -14.21486600
H         -18.26620800     -7.01198800    -14.16567100
H         -18.52629300    -10.66209400    -13.18807700
