10
b3lypvdz=-342.226383979523 
C         -13.47773900     -5.98984200    -11.02354200
O         -13.55237300     -7.00662400    -10.38704100
O         -13.69490200     -5.87581100    -12.35491100
C         -14.13970000     -7.06296300    -13.00578200
C         -15.62752400     -7.30226200    -12.81960800
O         -16.34952300     -6.61554200    -12.14389400
H         -13.19960900     -4.99270400    -10.62863800
H         -13.93124800     -6.92746100    -14.07981800
H         -13.58986500     -7.95096000    -12.64774300
H         -16.00621600     -8.19723300    -13.38282200
