10
b3lypvdz=-193.034298356175 
C          -8.52017400     -1.78599700     -7.11631000
C          -9.14333800     -0.54634600     -7.77687200
C          -9.26277400     -3.05248000     -7.47806900
O          -8.76190000     -4.04119200     -7.96104200
H          -7.46166200     -1.91113600     -7.39307100
H          -8.58018500     -1.67813000     -6.01576200
H          -9.05458600     -0.59069200     -8.87487700
H         -10.21367700     -0.45291700     -7.52539900
H          -8.64051300      0.37031900     -7.43248600
H         -10.36619100     -3.01383000     -7.25791200
