11
b3lypvdz=-268.247395315278 
C          -6.43726400     -2.72717800     -6.66922100
O          -6.86688800     -3.43985100     -5.79816700
O          -7.14624500     -1.83294100     -7.37843200
C          -8.55030500     -1.72429000     -7.03723100
C          -9.12161200     -0.55771700     -7.81935400
H          -5.38309100     -2.70427400     -7.01751100
H          -9.05009300     -2.67355500     -7.29326600
H          -8.64430200     -1.58075900     -5.94873600
H          -9.00993700     -0.71499800     -8.90447600
H         -10.19385200     -0.44436000     -7.59234100
H          -8.60921200      0.38092300     -7.55436700
