10
b3lypvdz=-193.034237942494 
C          -4.43314900     -1.64432700     -7.87629200
C          -6.40693800     -2.72868100     -6.70358000
O          -6.78692700     -3.15265900     -5.63740600
C          -5.01814000     -2.92350100     -7.27215500
H          -3.45021400     -1.84164900     -8.33009300
H          -5.08733500     -1.23550200     -8.66466000
H          -4.29760900     -0.86344800     -7.11031100
H          -7.09695400     -2.13995800     -7.36992800
H          -4.38084900     -3.35064100     -6.48139700
H          -5.11428500     -3.69503300     -8.06167800
