13
b3lypvdz=-381.524386440435 
C           2.48972100     -3.23839400     -1.34564500
C           1.20896900     -2.65588600     -1.88105400
O           1.08391900     -1.99855900     -2.88567300
O           0.16670500     -2.95339800     -1.04670400
C          -1.11685300     -2.55543400     -1.50725600
C          -1.70954600     -3.54687600     -2.49099300
O          -1.13214900     -4.51541200     -2.91625800
H           2.38764800     -4.33116100     -1.25821500
H           3.31850800     -2.98344200     -2.01654300
H           2.68509000     -2.84611100     -0.33524500
H          -1.08231500     -1.56455500     -1.99373600
H          -1.77132700     -2.49284700     -0.62206100
H          -2.76017100     -3.29392400     -2.79711600
