8
b3lypvdz=-228.936069042185 
O         -19.63519300    -11.33504100    -15.22526500
O         -18.70680400    -10.67766500    -12.80242200
C         -18.99412700    -12.02367500    -13.04102500
C         -19.48474300    -12.25502500    -14.44977700
H         -18.97364600    -10.21747100    -13.62162900
H         -19.78047500    -12.41747400    -12.35710400
H         -18.10462600    -12.66829700    -12.87545000
H         -19.71368500    -13.31155200    -14.73652700
