17
b3lypvdz=-346.828873990865 
C           2.44188900     -3.27385500     -1.45939800
C           2.43382700     -4.72376600     -0.95058000
C           1.10771900     -2.85378700     -2.04324900
O           0.90273800     -2.58163100     -3.20572500
O           0.14580100     -2.84066200     -1.08563300
C          -1.18867500     -2.47914800     -1.51211100
C          -1.38034100     -0.97152900     -1.55521300
H           3.19511700     -3.13502700     -2.24817300
H           2.68166000     -2.59043500     -0.62726200
H           1.69357300     -4.85547000     -0.14670600
H           3.42442500     -5.00090200     -0.55704200
H           2.18661800     -5.42636100     -1.76323300
H          -1.38362000     -2.93232600     -2.49573100
H          -1.84660600     -2.94276300     -0.76248600
H          -0.74749000     -0.51648400     -2.33153500
H          -2.43269100     -0.73757300     -1.78677200
H          -1.13324300     -0.51688200     -0.58205100
