14
b3lypvdz=-307.544198575362 
C          -5.02896900     -2.87019000     -7.23551600
C          -6.44491300     -2.78669100     -6.71530100
O          -6.89683800     -3.42290200     -5.79076600
O          -7.16770800     -1.89090700     -7.43095000
C          -8.54338300     -1.71787300     -7.02238400
C          -9.12128200     -0.57729100     -7.83735100
H          -4.44315900     -3.54037000     -6.59468400
H          -4.57145100     -1.86916700     -7.25929300
H          -5.03504100     -3.25382400     -8.26826200
H          -9.08728200     -2.66201600     -7.19458500
H          -8.57362300     -1.51330700     -5.93998600
H          -9.07553700     -0.79730800     -8.91621400
H         -10.17545500     -0.41537700     -7.56054100
H          -8.56686200      0.35692200     -7.65356600
