13
b3lypvdz=-381.516316650298 
C         -17.47345300    -10.27392800    -13.33588900
O         -16.66837800    -10.97481300    -13.88990400
O         -18.65290000    -10.68317900    -12.81713500
C         -18.98921200    -12.06159500    -13.03322600
C         -20.06932800    -12.43794200    -12.02183200
C         -19.47887400    -12.27512900    -14.46212000
O         -19.59888700    -11.40243400    -15.28308000
H         -17.36381700     -9.18742600    -13.14468400
H         -18.09092300    -12.68974400    -12.89724300
H         -20.95612000    -11.79688300    -12.14467500
H         -20.37146600    -13.48890900    -12.15366000
H         -19.68676400    -12.31384000    -10.99784800
H         -19.74147800    -13.34357900    -14.68810300
