13
b3lypvdz=-381.521782683955 
C         -14.11568800     -7.04300200    -13.05425400
C         -15.57477100     -7.29724600    -12.78195400
O         -16.30839700     -6.60691600    -12.11282700
O         -15.97857700     -8.44174600    -13.40227000
C         -17.34071400     -8.80548600    -13.21706000
C         -17.51630100    -10.29632800    -13.38562400
O         -16.63170900    -11.08952500    -13.59067600
H         -13.80379200     -6.12136900    -12.54989700
H         -13.94670700     -6.96161600    -14.13881100
H         -13.51619800     -7.89512500    -12.69916500
H         -17.98590400     -8.29322000    -13.95725700
H         -17.70580300     -8.48757000    -12.22500100
H         -18.59093800    -10.60885100    -13.29180300
