15
b3lypvdz=-382.729995349065 
O          -4.22636200     -3.55078300     -6.33369900
C          -5.04112800     -2.94788800     -7.31331000
C          -4.38507800     -1.67857300     -7.86957300
C          -6.41060200     -2.65422700     -6.70907900
O          -6.67646400     -2.87671500     -5.54434700
O          -7.27271000     -2.13381800     -7.59477000
C          -8.58568200     -1.83187900     -7.08335300
H          -4.77222400     -3.57534800     -5.52554500
H          -5.21041500     -3.65528600     -8.15097000
H          -3.39439800     -1.93210600     -8.27546700
H          -4.99753800     -1.23439500     -8.66905500
H          -4.24424200     -0.93884200     -7.06457700
H          -9.14189400     -1.41193200     -7.93028800
H          -9.07358000     -2.74631600     -6.71412000
H          -8.52108200     -1.10479100     -6.26004800
