8
b3lypvdz=-228.936109045469 
O         -13.68368100     -5.87960700    -12.36952700
C         -14.11044300     -7.04591000    -13.00981900
C         -15.58754900     -7.28752500    -12.81591500
O         -16.27470600     -6.51868100    -12.17758800
H         -14.49194100     -5.50879900    -11.96514600
H         -13.92105300     -7.01502400    -14.10598800
H         -13.57058600     -7.94395700    -12.63780900
H         -16.01454100     -8.20589700    -13.29020900
