17
b3lypvdz=-346.82887780529 
C         -11.35725600     -4.13232400     -7.33348400
C         -12.44868200     -4.32417400     -6.26952600
C         -11.92060000     -3.78757300     -8.69794500
O         -11.71769900     -2.75911400     -9.30383100
O         -12.70218800     -4.79540800     -9.16421400
C         -13.31683900     -4.59471800    -10.45837000
C         -14.63464200     -3.84421100    -10.34097500
H         -10.66974700     -3.32008000     -7.05669700
H         -10.76989800     -5.06155500     -7.43323700
H         -13.05795700     -3.41171000     -6.15785600
H         -13.12116800     -5.15270200     -6.53939500
H         -11.99843500     -4.54944200     -5.29001000
H         -13.46708500     -5.61156400    -10.84995100
H         -12.61132300     -4.05440600    -11.10695200
H         -14.46823400     -2.82343800     -9.96402900
H         -15.11362900     -3.76926500    -11.33152900
H         -15.32591900     -4.36651600     -9.65980000
