15
b3lypvdz=-382.729882677926 
C         -13.31989300     -5.97705800    -11.07921100
O         -13.04302500     -7.01510600    -10.51099500
O         -13.63058000     -5.87390800    -12.37695700
C         -13.63000600     -7.11267300    -13.13610800
C         -14.00428200     -6.76931900    -14.56326700
O         -13.01850900     -4.80069400     -9.00495900
C         -13.34707300     -4.64108900    -10.35836400
H         -14.34725200     -7.80797700    -12.67083100
H         -12.62968800     -7.56831100    -13.06368600
H         -13.27575300     -6.07191600    -15.00651800
H         -14.02490200     -7.68525000    -15.17494200
H         -15.00065100     -6.30160300    -14.60595000
H         -12.85509800     -5.75673800     -8.89841300
H         -14.35778600     -4.20448800    -10.48412000
H         -12.64300200     -3.95787100    -10.87368000
