11
b3lypvdz=-268.266068377735 
C         -14.10225600     -7.07198500    -13.03418500
C         -13.74472500     -6.93805500    -14.52229800
C         -15.58246700     -7.28259000    -12.80107500
O         -16.31633900     -6.55258100    -12.17554500
O         -16.02743500     -8.42176200    -13.39578800
H         -13.81326400     -6.17391400    -12.47008600
H         -13.56679700     -7.93453100    -12.60075400
H         -12.66323500     -6.76995300    -14.64358900
H         -14.01697200     -7.84771400    -15.07900700
H         -14.27261800     -6.08641300    -14.98143900
H         -16.98179200     -8.46410200    -13.19843300
