13
b3lypvdz=-381.524368590889 
C         -13.53874900     -5.95148700    -11.01909500
O         -13.58103800     -6.99808700    -10.41705100
O         -13.74217700     -5.85481100    -12.36731900
C         -14.14651200     -7.05656000    -13.00820700
C         -15.62706700     -7.33707800    -12.82859900
O         -16.37697600     -6.65557300    -12.17403300
C         -13.25875500     -4.59428300    -10.43147600
H         -13.94037600     -6.92698800    -14.08402400
H         -13.57389500     -7.92660700    -12.64242800
H         -15.97813900     -8.25508000    -13.37106000
H         -13.08065000     -4.69271000     -9.35390800
H         -14.11808700     -3.93067800    -10.61558700
H         -12.38027700     -4.14565800    -10.92081400
