11
b3lypvdz=-268.227004352447 
O         -13.68886100     -5.88730900    -12.32916100
C         -14.09223000     -7.04365200    -13.02019200
C         -13.75988700     -6.94365800    -14.51377600
C         -15.57474400     -7.28528000    -12.81355600
O         -16.25155800     -6.54940100    -12.12836300
H         -14.49728800     -5.56454200    -11.88556300
H         -13.57555000     -7.93824100    -12.60295600
H         -12.67782100     -6.79031800    -14.64036500
H         -14.04682800     -7.85983500    -15.05765800
H         -14.28242100     -6.08297700    -14.96185000
H         -16.01401200     -8.17708700    -13.32735900
