13
b3lypvdz=-381.516259491505 
C          -6.40525200     -2.69173600     -6.65910200
O          -6.77771700     -3.25859600     -5.66601700
O          -7.16235300     -1.89171200     -7.44198800
C          -8.54911400     -1.79210200     -7.08294600
C          -9.11713400     -0.56380600     -7.79104500
C          -9.30372000     -3.05375400     -7.49378900
O          -8.82078200     -3.97277100     -8.10315300
H          -5.37859500     -2.72123800     -7.07652900
H          -8.64368600     -1.69192000     -5.98677500
H          -8.99556000     -0.65818500     -8.88165700
H         -10.18821700     -0.44702100     -7.56101500
H          -8.59081800      0.34093000     -7.45336300
H         -10.38445200     -3.04289000     -7.18732100
