17
b3lypvdz=-346.828873161679 
C         -14.10881400     -7.07824800    -13.03289200
C         -13.75105100     -6.94214800    -14.52049900
C         -15.59178000     -7.28950700    -12.79922200
O         -16.31876900     -6.54716700    -12.17762200
O         -16.01334600     -8.43735500    -13.38979400
C         -17.41580500     -8.76340000    -13.25159200
C         -18.25454500     -8.09661800    -14.33037500
H         -13.82244500     -6.17875400    -12.46899100
H         -13.57094500     -7.93962500    -12.60046900
H         -12.67087700     -6.76439200    -14.64244000
H         -14.01548300     -7.85487400    -15.07597900
H         -14.28602100     -6.09532500    -14.98113700
H         -17.45060000     -9.85972100    -13.33706500
H         -17.75269200     -8.46417400    -12.24787800
H         -17.88829300     -8.36392200    -15.33506700
H         -19.30397500     -8.42521800    -14.24687600
H         -18.22885800     -7.00105100    -14.22260300
