12
b3lypvdz=-343.45708317909 
O         -10.47807500     -3.07759700     -6.91082800
C         -11.34293200     -4.11743300     -7.30555700
C         -12.44070700     -4.32623500     -6.25920600
C         -11.90743700     -3.80240000     -8.68492700
O         -11.58693100     -2.82206300     -9.32425600
O         -12.78048000     -4.72550000     -9.13114300
H         -10.40709500     -2.48892500     -7.68466200
H         -10.77803100     -5.06753800     -7.42290000
H         -13.04722000     -3.41168900     -6.15856000
H         -13.09562000     -5.16771500     -6.53113700
H         -11.97399900     -4.53611800     -5.28536400
H         -13.06117500     -4.43298800    -10.01856000
