10
b3lypvdz=-342.223977824781 
C         -15.61974800     -7.25214700    -12.83296500
O         -16.31904400     -6.54110100    -12.15944400
O         -15.99808400     -8.40702700    -13.41956400
C         -17.35114100     -8.80493900    -13.19811600
C         -17.49372700    -10.29825400    -13.38768300
O         -16.60332500    -11.05443900    -13.67871400
H         -14.55295100     -7.07217600    -13.07427600
H         -18.02318800     -8.29472400    -13.91546200
H         -17.69150000     -8.51070600    -12.19026900
H         -18.54929100    -10.64928800    -13.22840700
