15
b3lypvdz=-382.729774463272 
O           0.09996400     -2.99017900     -0.88702600
C          -1.11182900     -2.51237500     -1.40536100
C          -1.61096000     -3.40878400     -2.52433600
O          -1.00198600     -4.39889500     -2.87990200
O          -2.76469500     -2.97859100     -3.05133700
C          -3.32634300     -3.76852300     -4.13644400
C          -4.16568700     -4.92002400     -3.60912500
H           0.29304700     -3.79532800     -1.40305400
H          -1.00797700     -1.48600000     -1.80918000
H          -1.89950000     -2.46608100     -0.62664600
H          -3.93630400     -3.04778700     -4.69939000
H          -2.50282300     -4.12770300     -4.77109200
H          -4.95230400     -4.55568300     -2.92887400
H          -4.65163300     -5.43958600     -4.45148100
H          -3.53907000     -5.64846000     -3.07215200
