11
b3lypvdz=-268.26605097901 
C          -5.01635300     -2.89453000     -7.25377500
C          -4.41465100     -1.64501900     -7.90571200
C          -6.40737800     -2.71592000     -6.68110500
O          -6.82135300     -3.23624200     -5.67068200
O          -7.18294500     -1.90467000     -7.44758700
H          -4.38854200     -3.27272400     -6.43362600
H          -5.08733800     -3.70905000     -7.99818800
H          -3.39776900     -1.85743800     -8.26999100
H          -5.02263600     -1.30660200     -8.75738000
H          -4.34933600     -0.81217600     -7.18704200
H          -8.04889900     -1.87342800     -6.99921100
