30
b3lypvdz=-1503.243880658584 
Cl         -1.28811000     -4.24488500     -0.19102600
F           0.68256700      0.29830800     -2.27673700
F          -0.83640900      1.81948900     -1.92426500
F           1.25693500      2.27456600     -1.57101800
O          -0.14222100      2.01372000      0.78075900
O          -1.65444500      3.58569300      1.27933800
N          -2.41800600      1.51253300      0.72423700
C           3.87513300     -0.57393700      1.17039300
C           4.92704600     -0.83755500      0.09944300
C           4.27266800     -1.99755300      0.79710600
C           0.18520100      0.82998800      0.00927200
C           2.58269100     -0.06707400      0.79005400
C          -0.88877000     -0.24747600      0.13775800
C           1.49378000      0.36203200      0.46854600
C          -2.18250000      0.15829200      0.49552200
C           0.32856100      1.31580100     -1.46779100
C          -0.61912200     -1.60093600     -0.07230700
C          -3.20176400     -0.79470700      0.63339500
C          -1.43240600      2.45394600      0.93379700
C          -1.64072400     -2.54118100      0.06427400
C          -2.93404500     -2.14441700      0.41432300
H           4.24366000     -0.19961000      2.12930700
H           5.95820800     -0.58616600      0.35712800
H           4.64195500     -0.62835900     -0.93400400
H           3.54219000     -2.58854000      0.24001900
H           4.84955700     -2.55760000      1.53636400
H           0.38738500     -1.91865800     -0.34045600
H          -3.35374400      1.83538600      0.94196200
H          -4.20363300     -0.47621400      0.93163500
H          -3.72304100     -2.88828500      0.53057300
