7
b3lypvdz=-153.731901020486 
     O      0.41769900    -21.13628500     -0.94290000
     C     -0.10148400    -22.32827800     -1.34453400
     C      0.40763600    -23.54730700     -1.13466100
     H      1.34929600    -23.69721600     -0.59594300
     H      1.25604000    -21.30555000     -0.48323600
     H     -1.03878700    -22.16568700     -1.88594600
     H     -0.11030000    -24.42927600     -1.51197900
