15
b3lypvdz=-308.42123378661 
     C      0.88254900     -6.09178300     -1.46076800
     C      0.18706400     -6.47243700     -0.38690300
     O      0.17261200     -7.78378900      0.01932200
     C     -0.72361700     -8.18469700      0.99654600
     C     -0.36771800     -9.20516700      1.79360600
     C     -2.74211300     -7.27687000      2.14000200
     C     -2.03964500     -7.51917300      1.02478200
     H      1.44177600     -6.81456000     -2.05771700
     H      0.62936200     -9.64216800      1.72732200
     H     -3.73826300     -6.83087100      2.09277800
     H     -2.44777300     -7.21843400      0.05257700
     H      0.90442100     -5.04019300     -1.74781200
     H     -0.38077700     -5.77534800      0.23794600
     H     -1.09212200     -9.64063500      2.48041800
     H     -2.34225700     -7.51977400      3.12830000
