11
b3lypvdz=-231.070836828613 
     O     -2.28837800      0.68215700     -3.70271600
     C     -1.18716600      0.11655600     -3.11489800
     C     -0.80690400      0.21237800     -1.83628400
     C     -4.25593500      1.81469000     -3.05335300
     C     -2.92883400      1.69585500     -3.02797600
     H     -1.37957500      0.76298300     -1.08846200
     H     -4.87577800      1.07003900     -3.55678400
     H     -0.63686500     -0.46988300     -3.85438200
     H      0.10776600     -0.28904200     -1.51792000
     H     -4.73470200      2.67377300     -2.58224400
     H     -2.26103000      2.40389400     -2.52388000
