17
b3lypvdz=-272.520496708984 
     C     -0.76702700     -7.79703800      0.79529800
     C     -2.53879000     -8.75112000      3.15988500
     C     -2.85986000     -7.85297600      2.21203100
     C     -2.02246400     -7.41480000      1.08257000
     C     -3.42068200     -9.12514400      4.32305600
     C     -3.68897300    -10.60851600      4.42237300
     C     -3.40957800    -11.36516800      5.48721300
     H     -3.84302600     -7.37097700      2.27752600
     H     -2.49724700     -6.68544100      0.41555500
     H     -2.95035900    -10.93808800      6.38567000
     H     -0.24417400     -7.38999600     -0.07312000
     H     -0.21502800     -8.51426800      1.41099000
     H     -1.56900000     -9.26308600      3.11992300
     H     -2.94651700     -8.79096400      5.26631000
     H     -4.37797700     -8.57804500      4.23796500
     H     -4.14410300    -11.07100200      3.53638700
     H     -3.64169500    -12.43367100      5.50636800
