13
b3lypvdz=-195.176158102877 
     C     -1.97260700    -25.91258200     -2.93381000
     C     -2.25335100    -25.75215500     -4.39707000
     C     -2.71496700    -25.43625800     -7.44595600
     C     -1.56726300    -25.25604900     -6.77157700
     C     -1.34143100    -25.41371700     -5.32539000
     H     -2.76043000    -25.28320500     -8.52679300
     H     -0.68183300    -24.95579600     -7.34421100
     H     -0.31403400    -25.22882300     -4.98816800
     H     -0.91773000    -25.70369900     -2.69473800
     H     -2.60378000    -25.23931900     -2.32700300
     H     -2.20821500    -26.93910400     -2.59588900
     H     -3.28894300    -25.94096800     -4.70742000
     H     -3.64381500    -25.73662500     -6.95257500
