16
b3lypvdz=-234.452249733775 
     C     -1.54683800    -24.49517100     -2.42391100
     C     -1.62147600    -23.30966700     -3.03518600
     C     -2.12050700    -25.80960200     -2.92295400
     C     -3.32479800    -26.21342300     -2.05412400
     C     -2.39286800    -25.81197700     -4.40948000
     C     -3.56528300    -26.04437300     -5.00762300
     H     -2.11005200    -23.19282800     -4.00667900
     H     -3.03559400    -26.23626100     -0.99079700
     H     -3.69848200    -27.21262800     -2.32952700
     H     -4.14962100    -25.49054100     -2.16297100
     H     -4.47723300    -26.25419600     -4.44355000
     H     -1.06227800    -24.55659900     -1.44146000
     H     -1.19938700    -22.41139100     -2.57669300
     H     -1.33238600    -26.57158200     -2.74932300
     H     -1.51203600    -25.60837200     -5.03134400
     H     -3.65625900    -26.04158900     -6.09737600
