13
b3lypvdz=-704.329380987378 
     S     -0.18720200    -19.03406700      4.51301200
     O     -0.57870200    -20.16938200      5.39562800
     O      0.86747800    -18.05225200      4.88689500
     C      0.16645800    -19.70781500      2.82415900
     C     -0.66089400    -20.87342400      2.49920400
     C     -0.89958500    -21.31260500      1.25532400
     C      1.13875100    -19.07720000      2.15640800
     H     -1.07565500    -21.38479700      3.36980100
     H     -1.49721500    -22.21059400      1.08736400
     H      1.63995100    -18.22233800      2.61245500
     H     -1.34846700    -18.30625200      4.23977400
     H     -0.51039600    -20.79675000      0.37471000
     H      1.45137700    -19.42672200      1.16966600
