12
b3lypvdz=-157.109447747133 
     C     -3.27196900    -25.94491400     -2.23999600
     C     -2.10944000    -26.03500700     -4.48829700
     C     -1.45608800    -25.16419800     -5.26317300
     C     -1.95250100    -26.16257500     -2.99701900
     H     -3.13800200    -26.09359900     -1.15547900
     H     -4.04875800    -26.65032500     -2.58027100
     H     -3.65779400    -24.92418800     -2.40213500
     H     -0.72510100    -24.46336500     -4.84510100
     H     -2.83940200    -26.71490700     -4.95015600
     H     -1.63065300    -25.11607900     -6.34222300
     H     -1.19150000    -25.44519100     -2.64455900
     H     -1.56779300    -27.17255200     -2.75649100
