17
b3lypvdz=-272.518019875293 
     C     -4.09145400      4.98037700      0.83345700
     C     -4.55459300      5.71851900     -0.17969200
     C     -4.76909800      5.26744900     -1.60805500
     C     -4.23415700      3.88902900     -1.95542700
     C     -5.03754000      2.81226400     -2.00608400
     C     -2.19870600      2.97100100     -3.10266700
     C     -2.78225700      3.80391100     -2.22824000
     H     -3.80482700      3.93335900      0.70338500
     H     -6.11368400      2.89753600     -1.83140400
     H     -1.11540900      2.97166300     -3.24781800
     H     -2.15364500      4.51897300     -1.68323200
     H     -3.98228100      5.40795400      1.83381000
     H     -4.83433700      6.76204600      0.01333800
     H     -5.85056100      5.30861300     -1.83355500
     H     -4.30362400      6.01708800     -2.27497900
     H     -4.64207400      1.81435700     -2.20872200
     H     -2.78335400      2.27786000     -3.71361600
