17
b3lypvdz=-309.65912840364 
     O     -2.10278100      0.75252500     -3.79610000
     C     -5.13451200      5.38763100     -1.69725200
     C     -6.33021800      4.80372000     -0.92541200
     C     -4.32733400      4.33230900     -2.40305500
     C     -2.78594300      1.76143700     -3.19076800
     C     -2.27440900      2.91304500     -2.71469400
     C     -3.05988500      3.99136500     -2.10402900
     H     -6.92696600      5.60136200     -0.45163000
     H     -5.99187100      4.11126600     -0.13687000
     H     -6.99838000      4.23930700     -1.59940300
     H     -1.18586300      3.06050900     -2.75971300
     H     -2.53732500      4.57658600     -1.33459500
     H     -1.17008000      1.01184600     -3.87108600
     H     -4.48421300      5.95549700     -1.00841900
     H     -5.52051600      6.11220800     -2.44040500
     H     -4.84379700      3.79707400     -3.21183100
     H     -3.84810900      1.51211300     -3.11263900
