15
b3lypvdz=-308.421288830402 
     O     -4.23307200    -14.73813100      3.93649100
     C     -3.29821700    -15.51573500      4.57113300
     C     -3.43575000    -16.84150400      4.63663700
     C     -3.01611100    -11.69605100      5.52314500
     C     -3.71841000    -12.82696500      5.36732300
     C     -4.17940200    -13.36252500      4.07136400
     C     -4.64064200    -12.61865600      3.05318300
     H     -4.30775700    -17.33804800      4.20505300
     H     -2.74922000    -11.32892900      6.51714800
     H     -3.99536100    -13.41720700      6.24948100
     H     -4.96739500    -13.09371200      2.12702800
     H     -2.43801000    -14.97994300      4.98607400
     H     -2.66478800    -17.44584800      5.11410700
     H     -2.68465800    -11.10661500      4.66372500
     H     -4.73960800    -11.53883200      3.15680800
