15
b3lypvdz=-308.420661224167 
     C     -3.24393300      6.98248700      4.49362200
     C     -4.56995300      6.85146400      4.59249000
     O     -2.48657200      7.02760300      3.35127400
     C     -3.09040000      6.69671500      2.13700900
     C     -3.40235600      5.26522700      1.97936700
     C     -4.20302700      4.72943700      1.04734800
     C     -3.21928600      7.65672400      1.21109100
     H     -5.21972300      6.75537900      3.72184500
     H     -2.89730100      4.61654900      2.70260400
     H     -4.33840400      3.64789500      0.97582000
     H     -2.94777600      8.68650200      1.44595600
     H     -2.59363700      7.09807100      5.36420200
     H     -5.02516200      6.84415900      5.58367800
     H     -4.75296300      5.34638000      0.33189600
     H     -3.57030800      7.41390800      0.20769900
