19
b3lypvdz=-273.742812246464 
     C     -3.56860500     -9.10175900      4.29101200
     C     -2.50901700     -8.54711500      5.26081200
     C     -4.97423400     -8.57464600      4.63795600
     C     -3.54264600    -10.62576600      4.20873500
     C     -3.74967500    -11.37101300      5.47137400
     C     -3.98085400    -12.68453400      5.61426700
     C     -3.34426400    -11.22839600      3.02179300
     H     -2.45445400     -7.44822700      5.18495700
     H     -1.51048600     -8.95376900      5.03115100
     H     -2.74168700     -8.79051100      6.31136300
     H     -4.99686400     -7.47183700      4.60356700
     H     -5.28982100     -8.88443400      5.64857200
     H     -5.72390000     -8.94874400      3.92287200
     H     -3.71698800    -10.76944600      6.38614500
     H     -4.11251100    -13.12528400      6.60525100
     H     -3.20754300    -10.63955400      2.11149900
     H     -3.31699400     -8.72869400      3.28314400
     H     -4.05644900    -13.36512000      4.76159800
     H     -3.30060600    -12.31495200      2.91253200
