11
b3lypvdz=-231.070907304416 
     C     -2.33390200      7.23619400      5.63203800
     C     -3.03985600      6.91796900      4.54660200
     O     -2.63966100      7.31226200      3.29416000
     C     -3.06729900      6.60264100      2.20563800
     C     -3.56293400      5.36190600      2.17444900
     H     -1.38302300      7.76730600      5.55197900
     H     -3.66465300      4.73255400      3.05970200
     H     -2.71598900      6.96997700      6.61795500
     H     -3.99648600      6.38553800      4.58381700
     H     -2.92906000      7.20452100      1.30348100
     H     -3.87253900      4.94443100      1.21538100
