17
b3lypvdz=-272.517685201337 
     C     -1.38850100     -9.64010500      2.65585700
     C     -2.47298400     -8.89648300      2.93323600
     C     -2.77016700     -7.59766600      2.28315700
     C     -2.06818600     -6.97814000      1.32343100
     C     -3.50624300     -9.31480600      3.97135000
     C     -3.44455900    -10.74018300      4.44165900
     C     -3.30588800    -11.12369500      5.71418200
     H     -1.19812100    -10.58094300      3.17494800
     H     -3.67869500     -7.10485900      2.65044200
     H     -2.39776000     -6.01754900      0.92141900
     H     -3.19999500    -10.39280700      6.52295000
     H     -0.65443800     -9.32425500      1.91145100
     H     -1.15188800     -7.40048000      0.90233100
     H     -3.43646200     -8.62828500      4.83580200
     H     -4.50619100     -9.13360700      3.52941300
     H     -3.54941500    -11.50339100      3.66026100
     H     -3.29840800    -12.17894700      5.99971300
