15
b3lypvdz=-308.421416051854 
     C     -2.19174200      7.40559400      5.61262000
     C     -3.14635900      7.40155900      4.66955900
     C     -4.59657600      7.32633700      4.93510200
     C     -5.15725000      6.59828700      5.91092100
     O     -2.75222500      7.58231900      3.35378900
     C     -3.43251600      6.92450900      2.35911800
     C     -3.13519400      7.11931500      1.07311200
     H     -1.13898300      7.45789200      5.32973500
     H     -5.23185200      7.92955700      4.27543400
     H     -6.23395900      6.63324300      6.09471600
     H     -2.34731100      7.81298600      0.77246000
     H     -2.46189200      7.40143000      6.66850800
     H     -4.55669400      5.95307000      6.55766900
     H     -4.20969500      6.23057600      2.69572000
     H     -3.68215300      6.57212900      0.30603700
