12
b3lypvdz=-157.109282664993 
     C     -3.27580000    -26.36490900     -2.06854000
     C     -1.55131100    -24.53220000     -2.36758100
     C     -1.61494800    -23.30241300     -2.88543300
     C     -2.17875700    -25.76314700     -2.96223700
     H     -2.87666300    -26.64253400     -1.07786700
     H     -3.70073600    -27.27385100     -2.52479200
     H     -4.09441700    -25.64369200     -1.91146400
     H     -2.13984300    -23.10601700     -3.82686100
     H     -1.01845800    -24.68097500     -1.41835600
     H     -1.14450300    -22.44624800     -2.39453400
     H     -1.39398100    -26.52714700     -3.11881100
     H     -2.59808300    -25.52566800     -3.95542400
