13
b3lypvdz=-195.167998240352 
     C     -1.49978100    -24.63677200     -2.36748200
     C     -1.73004600    -23.37754800     -2.74977000
     C     -1.93765400    -25.88895800     -3.09229400
     C     -2.40077000    -25.69109400     -4.51006600
     C     -3.61236200    -26.01270700     -4.97318200
     H     -2.27578300    -23.14409100     -3.66829800
     H     -4.37831500    -26.44300200     -4.31988200
     H     -0.95480900    -24.81673500     -1.43227600
     H     -1.37913500    -22.53434900     -2.14962900
     H     -2.73285800    -26.38586000     -2.50462700
     H     -1.08834500    -26.60109000     -3.08254800
     H     -1.66348500    -25.25366500     -5.19555200
     H     -3.88645600    -25.86002900     -6.02059200
