17
b3lypvdz=-272.513365411547 
     C      0.58657100    -23.74729100     -1.03870600
     C     -0.39430400    -24.61522100     -1.32488700
     C     -1.35550300    -24.50428600     -2.44598200
     C     -1.85519300    -23.31832800     -2.83391100
     C     -1.80171000    -25.83493700     -3.04528600
     C     -2.11217700    -25.91193600     -4.52418700
     C     -1.60264800    -25.16204600     -5.50615600
     H      1.24374600    -23.90234500     -0.17924700
     H     -0.49413600    -25.51206200     -0.69888000
     H     -2.54508700    -23.23380000     -3.67581400
     H     -0.91652800    -24.33344300     -5.31074000
     H      0.77307700    -22.86636100     -1.65960500
     H     -1.59042500    -22.39930300     -2.30650000
     H     -2.68785400    -26.18418400     -2.48171700
     H     -1.02753800    -26.59646900     -2.83147000
     H     -2.79188800    -26.72872300     -4.79834700
     H     -1.86690300    -25.36206400     -6.54826500
