13
b3lypvdz=-195.168731117763 
     C     -4.40332000      5.73109600     -0.19200800
     C     -3.94493000      6.97191700     -0.00594000
     C     -5.04074600      5.22408800     -1.46351000
     C     -4.32024000      4.04472700     -2.07310900
     C     -4.86240500      2.84990900     -2.32572400
     H     -4.00497900      7.72749700     -0.79800900
     H     -5.91003500      2.63259600     -2.08795200
     H     -4.32097500      4.99879900      0.62283500
     H     -3.50024200      7.28260600      0.94351400
     H     -6.08988700      4.93473100     -1.26175600
     H     -5.06409700      6.05309800     -2.19665500
     H     -3.26464400      4.21801500     -2.32224900
     H     -4.27930000      2.04312100     -2.77863800
