19
b3lypvdz=-273.736810968138 
     C     -0.01982400    -24.74179700     -1.78904900
     C     -1.20045600    -24.78156600     -2.41215800
     C     -1.92819400    -25.99852400     -2.95373300
     C     -3.34027100    -26.04268400     -2.31450900
     C     -1.20070300    -27.32509300     -2.64736100
     C     -2.09832200    -25.88919200     -4.46594300
     C     -1.44540000    -25.06581100     -5.29078500
     H      0.57650700    -25.63783200     -1.60126000
     H     -3.27424300    -26.21008000     -1.22725100
     H     -3.93542500    -26.85967900     -2.75353900
     H     -3.88422200    -25.09957800     -2.48765500
     H     -1.11020900    -27.48275100     -1.56033300
     H     -0.19445100    -27.33964200     -3.09222900
     H     -1.76283100    -28.17383500     -3.06881600
     H     -0.69935700    -24.35544500     -4.92481400
     H      0.40194700    -23.79587300     -1.43916400
     H     -1.74221100    -23.84038000     -2.57323500
     H     -2.82997200    -26.59528700     -4.88163300
     H     -1.63556500    -25.08195100     -6.36743300
