15
b3lypvdz=-308.421405270497 
     C     -2.51278200      7.10562600      5.62249400
     C     -3.05341700      6.80738800      4.43949000
     O     -2.53293600      7.29538500      3.26666700
     C     -3.04562700      6.81770700      2.07007800
     C     -3.33414000      5.37178400      1.99733900
     C     -4.31300200      4.81787600      1.26753700
     C     -3.15191500      7.67888200      1.04608900
     H     -1.62053700      7.73031300      5.69953100
     H     -2.67699300      4.72939400      2.59595600
     H     -4.43722200      3.73302700      1.22025800
     H     -2.92459500      8.73623200      1.19059500
     H     -2.97431700      6.72407500      6.53314600
     H     -3.94987900      6.18722300      4.33494900
     H     -5.01658700      5.43033900      0.69737300
     H     -3.42295100      7.32354700      0.05269800
