19
b3lypvdz=-273.743745440205 
     C      0.45848200    -23.76951100     -1.03311100
     C     -0.61646500    -24.54525500     -1.24159700
     C     -1.48063000    -24.53131100     -2.44263200
     C     -1.69353300    -23.40818600     -3.15125600
     C     -2.13825100    -25.84551700     -2.85683400
     C     -3.19136800    -26.32364900     -1.83914500
     C     -1.09157500    -26.94176100     -3.12963100
     H      1.02808300    -23.83086300     -0.10238200
     H     -0.87736500    -25.27656800     -0.46705700
     H     -2.31481500    -23.41969700     -4.05086500
     H     -2.74617000    -26.56083700     -0.85829600
     H     -3.68322900    -27.24110500     -2.20429900
     H     -3.97234300    -25.56243900     -1.68105000
     H     -0.56916700    -27.24045100     -2.20436400
     H     -0.33079300    -26.59438200     -3.84695800
     H     -1.56859300    -27.84428600     -3.54743000
     H      0.81211300    -23.05981900     -1.78695400
     H     -1.26937700    -22.44782700     -2.84922500
     H     -2.67360400    -25.64613600     -3.80151400
