15
b3lypvdz=-308.421586426687 
     C     -4.40845200      7.73336800      7.28612100
     C     -3.14907600      6.71292300      4.64177900
     C     -4.45771900      6.90392900      4.89325900
     C     -5.00486400      7.54060200      6.09724200
     O     -2.59851600      6.14353300      3.52744000
     C     -3.35040400      6.08269300      2.37692700
     C     -3.17841200      5.11430600      1.47743500
     H     -5.19052300      6.57651000      4.15086600
     H     -6.03905300      7.88835000      5.98875400
     H     -2.47752300      4.29534800      1.65182800
     H     -4.93795400      8.24223200      8.09483200
     H     -3.39341300      7.38720500      7.50228200
     H     -2.36137600      7.00346600      5.34012400
     H     -4.04827100      6.91726400      2.24146500
     H     -3.73604200      5.14537200      0.54104600
