11
b3lypvdz=-231.065093850083 
     O     -4.29168800    -14.76882300      4.33936900
     C     -3.24860400    -15.66254100      4.33153100
     C     -1.93578900    -15.41892000      4.30323900
     C     -3.55669500    -12.74906400      5.41308200
     C     -4.05371200    -13.40612700      4.36686200
     H     -1.51898800    -14.41109400      4.30486500
     H     -3.23795900    -13.26969400      6.31820700
     H     -3.65945300    -16.67551100      4.33437600
     H     -1.24833000    -16.26527100      4.27984000
     H     -3.45364300    -11.66308100      5.37061700
     H     -4.38533800    -12.90647500      3.44991200
