17
b3lypvdz=-309.656271258087 
     O      0.40200300    -20.93874700     -0.94268100
     C     -0.28322900    -22.09721900     -1.17810700
     C     -1.36619200    -24.81841600     -2.20812900
     C     -1.52739100    -23.59259000     -2.74220100
     C     -0.82557900    -22.35967600     -2.38017300
     C     -2.14173700    -26.03725200     -2.62663700
     C     -1.24707100    -27.13466800     -3.22548600
     H     -2.26089600    -23.48680300     -3.55267600
     H     -0.75505000    -21.57543400     -3.14193900
     H     -0.49908700    -27.48392200     -2.49295200
     H     -0.69957500    -26.75627000     -4.10466200
     H     -1.84172100    -28.00849500     -3.53967900
     H      0.61481700    -20.88571400     -0.00175600
     H     -0.36364700    -22.79843300     -0.33858300
     H     -0.59499500    -24.97612400     -1.44153100
     H     -2.67780900    -26.45689300     -1.75314000
     H     -2.91614000    -25.74704200     -3.35747100
