16
b3lypvdz=-234.447732542344 
     C     -1.40798800     -9.24393200      2.63672000
     C     -2.46600600     -8.60156100      3.14165900
     C     -3.35540100     -9.04910100      4.28825900
     C     -2.73767500     -8.61611700      5.63881400
     C     -3.73335000    -10.51853700      4.33166300
     C     -3.76164600    -11.38976700      3.31913700
     H     -1.10386900    -10.23262800      2.99109400
     H     -2.46673200     -7.54838900      5.63241600
     H     -1.82354500     -9.19422900      5.84982700
     H     -3.45036100     -8.78235100      6.46460200
     H     -3.44931900    -11.11554600      2.30848100
     H     -0.80220500     -8.79007500      1.84761400
     H     -2.70559600     -7.60746900      2.74342300
     H     -4.30780000     -8.49218700      4.18768500
     H     -4.07036000    -10.86288000      5.31847300
     H     -4.10714600    -12.41462900      3.47923400
