16
b3lypvdz=-234.453169687382 
     C     -0.07887500    -24.76514400     -1.72790100
     C     -1.23022700    -24.72898600     -2.40355700
     C     -2.00046400    -25.93346300     -2.88532500
     C     -3.42523100    -25.94753300     -2.28978400
     C     -2.06549500    -26.01919600     -4.39955900
     C     -1.36537000    -25.28390200     -5.26777100
     H      0.40455700    -25.71387200     -1.47188500
     H     -3.39379700    -25.99782800     -1.18976300
     H     -3.99849400    -26.81425000     -2.65829300
     H     -3.98018600    -25.03776600     -2.57693900
     H     -0.64744800    -24.52811100     -4.93660100
     H      0.42752900    -23.85205700     -1.40339200
     H     -1.68073800    -23.75763200     -2.64943200
     H     -1.47990600    -26.84153400     -2.52325300
     H     -2.76805900    -26.77109100     -4.78386800
     H     -1.48319600    -25.42503500     -6.34597800
