16
b3lypvdz=-234.458512934849 
     C     -2.10959800    -25.84604400     -3.07825600
     C     -3.25738400    -26.17490100     -2.12325400
     C     -2.44972300    -25.77005500     -4.55600500
     C     -3.66293400    -26.09372200     -5.03658100
     C     -1.29967100    -25.16438900     -6.73991600
     C     -1.32386000    -25.31685000     -5.40684600
     H     -2.89453800    -26.17177600     -1.08206700
     H     -3.68647400    -27.17122500     -2.32445500
     H     -4.07144400    -25.43493200     -2.20134600
     H     -4.47099800    -26.42697400     -4.38432300
     H     -0.39362100    -24.81417600     -7.24091600
     H     -0.40299800    -25.07659100     -4.86023100
     H     -1.65872800    -24.88071000     -2.77836400
     H     -1.30376700    -26.59512200     -2.95039500
     H     -3.90056800    -26.04224900     -6.10226300
     H     -2.16389400    -25.37408300     -7.37748200
