17
b3lypvdz=-272.513093173559 
     C     -1.50796700     -8.90848000      2.42838000
     C     -2.56849200     -8.58067400      3.17364900
     C     -3.07060100     -9.32672000      4.39318200
     C     -3.37095300    -10.81954600      4.26705400
     C     -3.57751200    -11.50111100      5.56823200
     C     -4.12437800    -12.70773000      5.78031700
     C     -3.46674100    -11.45421400      3.08714800
     H     -0.91449900     -9.80843900      2.61518500
     H     -3.24663500    -10.93621900      6.44896000
     H     -4.20652800    -13.11276600      6.79201700
     H     -3.31794700    -10.92770700      2.14450800
     H     -1.19481500     -8.26809500      1.59890300
     H     -3.10867200     -7.66205500      2.91655800
     H     -2.33627700     -9.20690100      5.21442200
     H     -3.98443200     -8.83165400      4.76768800
     H     -4.50978300    -13.33078000      4.96854700
     H     -3.69606700    -12.52090900      3.02594800
