15
b3lypvdz=-308.422852332859 
     O     -2.33278600      0.59947300     -3.79544100
     C     -1.14108200      0.19499600     -3.24067100
     C     -0.28862300     -0.57324900     -3.91909900
     C     -4.24267800      4.11985500     -1.93565500
     C     -2.88468200      1.78311800     -3.39348700
     C     -2.27101100      2.79786000     -2.75577300
     C     -2.96214600      4.01955600     -2.33014500
     H     -0.48362600     -0.85175600     -4.95706000
     H     -1.19337100      2.74923600     -2.57242300
     H     -2.34854400      4.92929400     -2.33586600
     H     -0.98598100      0.50474400     -2.20068600
     H      0.61196700     -0.94682200     -3.43118900
     H     -4.67746200      5.08784100     -1.67482300
     H     -4.89290800      3.24424300     -1.84665200
     H     -3.93196700      1.83031300     -3.70103100
