11
b3lypvdz=-231.065095125008 
     C     -3.18630700      7.08661700      4.54962000
     C     -4.49399600      6.90310900      4.74998400
     O     -2.46185800      6.93748600      3.39208900
     C     -3.08270800      6.51141500      2.22905100
     C     -3.49653500      5.26406200      2.01463800
     H     -5.17528300      6.57558000      3.96433700
     H     -3.42174100      4.49616800      2.78792100
     H     -2.50904000      7.41232100      5.34284300
     H     -4.89928500      7.09184000      5.74477300
     H     -3.13833100      7.29770900      1.46745100
     H     -3.92751500      4.99319100      1.04929300
