17
b3lypvdz=-309.655324629845 
     O     -4.25228800    -14.93579600      4.24360300
     C     -3.54222400     -9.01492600      4.07675100
     C     -4.82360800     -8.27247100      4.49838500
     C     -3.65803000    -10.50739600      4.22234600
     C     -4.10135400    -13.58150600      4.32386900
     C     -3.93026200    -12.82344900      3.22616100
     C     -3.75973400    -11.36989000      3.19223000
     H     -4.70504400     -7.18017000      4.39391400
     H     -5.08055400     -8.48397700      5.55107800
     H     -5.67885300     -8.58589500      3.87805800
     H     -3.93069300    -13.34551600      2.26385300
     H     -3.71251900    -10.94293000      2.18248700
     H     -4.38475700    -15.28957100      5.13239200
     H     -3.29800800     -8.76339000      3.02973700
     H     -2.70203900     -8.64541000      4.69431900
     H     -3.69489600    -10.88478500      5.25336600
     H     -4.12593700    -13.15142300      5.33185200
