17
b3lypvdz=-272.518564945768 
     C     -4.08580100      5.80974200     -0.18526300
     C     -4.00935500      7.14395900     -0.20380100
     C     -4.89609200      4.97519500     -1.13744600
     C     -4.10176500      3.99520100     -1.99304400
     C     -4.92036400      3.01521400     -2.73361600
     C     -4.58104800      1.74729600     -3.00425200
     C     -2.76215900      4.03557800     -2.09602100
     H     -4.54873800      7.73885200     -0.94840900
     H     -5.90500900      3.37210500     -3.06315600
     H     -5.25052600      1.09612700     -3.57191000
     H     -2.16758100      4.76459100     -1.54185200
     H     -3.52547800      5.25606800      0.57844200
     H     -3.40864100      7.69006500      0.52833800
     H     -5.63713100      4.38783300     -0.56155400
     H     -5.48611500      5.63487100     -1.80223300
     H     -3.63785000      1.31649600     -2.65819200
     H     -2.22114700      3.35200700     -2.75383000
