17
b3lypvdz=-309.658722420923 
     O     -2.63586600      6.99960800      3.65052900
     C     -3.27517800      6.53767900      2.54173800
     C     -3.12031100      5.32397300      1.97644800
     C     -3.79058200      4.83394200      0.76895200
     C     -4.43274400      5.54807400     -0.17527500
     C     -5.13349200      4.95208900     -1.36477600
     C     -6.66008400      5.13556300     -1.32480000
     H     -2.44209500      4.61678300      2.47231400
     H     -3.74326500      3.74576700      0.62922400
     H     -6.93480800      6.20153600     -1.24752400
     H     -7.09984200      4.61578200     -0.45798800
     H     -7.13337000      4.73304000     -2.23611000
     H     -2.02008100      6.31565800      3.95925500
     H     -3.96451800      7.29065500      2.14995300
     H     -4.47333200      6.64240100     -0.08958100
     H     -4.74581900      5.41841200     -2.29028200
     H     -4.89331300      3.87623600     -1.43177700
