11
b3lypvdz=-231.066077104808 
     C      0.52552200     -6.42690600     -0.25112900
     C      0.34769800     -5.31318000      0.46505100
     O      0.09955800     -7.70744000     -0.00061800
     C     -0.91425500     -8.03293900      0.86670200
     C     -1.98030500     -7.31620800      1.23383900
     H     -0.22917700     -5.26953600      1.38805000
     H     -2.17444500     -6.30153300      0.88744900
     H      1.12966500     -6.43532300     -1.16203500
     H      0.83245100     -4.40055000      0.11467900
     H     -0.76753900     -9.06136500      1.20838500
     H     -2.71417200     -7.78782100      1.88992700
