15
b3lypvdz=-308.423505945599 
     C     -2.29457600      7.30479700      5.74097800
     C     -2.87629600      6.82475700      4.64211600
     O     -2.67185500      7.39179400      3.41203400
     C     -3.36947300      6.88677200      2.35072200
     C     -4.35405500      5.69923000     -0.30992200
     C     -4.01344800      6.97222500     -0.04587700
     C     -3.32382600      7.47493400      1.14532500
     H     -1.64309400      8.18044800      5.70365900
     H     -4.26450400      7.73708500     -0.79082300
     H     -2.76155700      8.40911200      1.05098800
     H     -2.47273600      6.81940200      6.70018800
     H     -3.54143800      5.95255500      4.64764900
     H     -3.96088800      5.98847700      2.56192100
     H     -4.08534400      4.87334000      0.35604800
     H     -4.90521100      5.44247300     -1.21750800
