17
b3lypvdz=-309.656138690037 
     O     -2.14849900      0.53792500     -3.76274100
     C     -4.97627900      5.26461900     -1.55386200
     C     -5.33390700      6.46873400     -2.44289400
     C     -4.24172600      4.17909700     -2.29437200
     C     -4.72417800      2.93924200     -2.50287700
     C     -4.04371700      1.82641600     -3.17054000
     C     -2.72817300      1.56935500     -3.07701900
     H     -5.86024200      7.24762900     -1.86540800
     H     -5.98519100      6.16401100     -3.27855100
     H     -4.42918100      6.92853600     -2.87779300
     H     -5.73789800      2.72080900     -2.13966300
     H     -4.65248700      1.12628900     -3.75376400
     H     -1.25493000      0.40208000     -3.41995700
     H     -4.35384100      5.62174200     -0.71038400
     H     -5.89279600      4.84485900     -1.10344900
     H     -3.26091900      4.44574600     -2.71066100
     H     -2.06733700      2.17701000     -2.44566400
