17
b3lypvdz=-272.519472290819 
     C      0.01496100    -24.80555300     -1.96158400
     C     -1.20586500    -24.63895300     -2.49882000
     C     -1.79456800    -23.30579900     -2.75066800
     C     -1.61570700    -22.21370600     -1.99305000
     C     -2.05716200    -25.83412100     -2.90803900
     C     -2.28129000    -25.91195100     -4.39859500
     C     -3.47648600    -25.87401900     -4.99491100
     H      0.41403900    -25.80378400     -1.76034700
     H     -2.45824200    -23.23723300     -3.62136200
     H     -2.08929500    -21.26479900     -2.25828100
     H     -4.40021600    -25.78602500     -4.41225200
     H      0.65309800    -23.95476700     -1.71087300
     H     -1.00606300    -22.23320300     -1.08425700
     H     -3.03620500    -25.78737700     -2.39907800
     H     -1.55359400    -26.75369900     -2.56287900
     H     -1.37411600    -25.99710200     -5.01104700
     H     -3.57808900    -25.93740800     -6.08205700
