19
b3lypvdz=-273.74275376387 
     C     -3.48896100      4.68930400      0.43297100
     C     -4.31457900      5.59003000     -0.12992600
     C     -4.44429700      6.98212500      0.36296400
     C     -3.71500600      7.58253100      1.31621600
     C     -5.17109700      5.19801300     -1.33296000
     C     -6.67786500      5.33621500     -1.04473600
     C     -4.77426800      5.96824500     -2.60546800
     H     -3.41242900      3.67364900      0.03633900
     H     -5.22306800      7.58056200     -0.12093100
     H     -3.91348900      8.61658100      1.60738900
     H     -6.96476100      6.37939300     -0.82992000
     H     -6.97763300      4.71986400     -0.18245100
     H     -7.26956800      5.00768300     -1.91584100
     H     -4.96949600      7.05065100     -2.51378400
     H     -5.34978900      5.60225800     -3.47220100
     H     -3.70316400      5.83355200     -2.82800700
     H     -2.87215200      4.92419100      1.30383700
     H     -2.90561000      7.07108000      1.84473200
     H     -4.97236700      4.12927200     -1.52562200
