17
b3lypvdz=-272.518535482657 
     C     -3.86495600      4.63596500      0.79698800
     C     -4.22219000      5.57253400     -0.09791100
     C     -4.32538500      7.00630300      0.25634600
     C     -3.55615300      7.65971700      1.13876200
     C     -4.59286100      5.24269400     -1.54082300
     C     -4.26099600      3.85109400     -2.00297800
     C     -5.15690300      2.91608500     -2.33118300
     H     -3.78861000      3.58257000      0.51922600
     H     -5.09094000      7.57332800     -0.29040500
     H     -3.71785900      8.71860600      1.35693100
     H     -6.23394300      3.10941700     -2.26997400
     H     -3.65614500      4.90359100      1.83562200
     H     -2.74256200      7.15799300      1.67111700
     H     -5.67321400      5.43729200     -1.67927800
     H     -4.07414300      5.96947800     -2.19461500
     H     -3.19239100      3.60961100     -2.07507000
     H     -4.84545000      1.92602300     -2.67525500
