15
b3lypvdz=-308.42002503147 
     O     -4.23253000    -14.67637200      4.72763400
     C     -3.29626200    -15.56651000      4.27289100
     C     -2.03526600    -15.31946100      3.90360100
     C     -3.71326700    -12.67756000      5.83734600
     C     -3.92954500    -13.31282900      4.67737300
     C     -3.98166900    -12.73849900      3.32068300
     C     -3.93428300    -11.43791100      2.99895200
     H     -1.59319000    -14.32188500      3.93019700
     H     -3.71293900    -13.23728900      6.77304800
     H     -4.09323600    -13.48087400      2.52445500
     H     -3.99626600    -11.11770400      1.95661400
     H     -3.72871900    -16.57082600      4.26082600
     H     -1.41710200    -16.15166400      3.56436200
     H     -3.54329000    -11.60053600      5.86984500
     H     -3.84073600    -10.65037900      3.75217400
