16
b3lypvdz=-234.452363937622 
     C     -0.05802000    -24.73609600     -1.77127600
     C     -1.19597500    -24.74108800     -2.47064000
     C     -1.90550300    -25.94117500     -3.05318500
     C     -1.31009100    -27.30348300     -2.65299200
     C     -2.04637100    -25.85498800     -4.56283400
     C     -1.38268900    -25.02669500     -5.37442000
     H      0.49371000    -25.65266600     -1.54670700
     H     -1.32256900    -27.43745100     -1.55914800
     H     -0.27130700    -27.40364400     -3.00793600
     H     -1.89359600    -28.12206700     -3.10328000
     H     -0.66096100    -24.30064300     -4.98857300
     H      0.36844500    -23.80406500     -1.39044700
     H     -1.69889200    -23.78569800     -2.66937400
     H     -2.93889200    -25.91433500     -2.64837400
     H     -2.75207900    -26.57578200     -4.99725300
     H     -1.54070900    -25.04812300     -6.45656200
