15
b3lypvdz=-308.422719897119 
     C      0.37882900    -19.92675100      3.19960900
     C     -0.67694800    -20.59085000      2.69893700
     C     -0.81564000    -21.08476900      1.32486900
     C     -0.25558400    -20.46947400      0.26609500
     O     -0.26862800    -20.86988300     -1.03843700
     C     -0.52953400    -22.18334500     -1.34401000
     C     -0.93661100    -22.54120900     -2.56199900
     H     -1.52219600    -20.80418000      3.36477200
     H     -1.43310400    -21.97543000      1.17669700
     H     -1.13027900    -21.79423800     -3.33439600
     H      0.37579500    -19.55131500      4.22542300
     H      1.27673000    -19.73727200      2.60386100
     H      0.26531300    -19.51349900      0.35417100
     H     -0.32133900    -22.89725400     -0.54021100
     H     -1.07110600    -23.59633200     -2.80068200
