19
b3lypvdz=-273.746049551689 
     C     -2.09436100    -25.94910000     -2.94401700
     C     -3.35045000    -26.26569600     -2.12861000
     C     -1.02493200    -27.04451700     -2.76032800
     C     -2.34074600    -25.73021500     -4.41659800
     C     -3.51148000    -25.82529200     -5.07140900
     C     -3.71300400    -25.64155200     -6.51352300
     C     -2.78770900    -25.73123100     -7.48204300
     H     -3.09843100    -26.39588300     -1.06398300
     H     -3.82541700    -27.19777600     -2.47818600
     H     -4.09930800    -25.46037500     -2.19892100
     H     -0.76455100    -27.17066500     -1.69712400
     H     -0.10157300    -26.79355000     -3.30737200
     H     -1.38929900    -28.01373000     -3.14091700
     H     -4.41886700    -26.05006600     -4.50210700
     H     -4.74384700    -25.41724900     -6.81223900
     H     -3.05419600    -25.55353100     -8.52637300
     H     -1.65976500    -25.01005500     -2.54561900
     H     -1.44209100    -25.47316500     -4.99135900
     H     -1.74687300    -25.99205300     -7.27077100
