15
b3lypvdz=-308.42379245506 
     C     -2.17493900      7.35473800      5.51841100
     C     -3.07575400      7.21403300      4.54678800
     O     -2.74162500      7.36285400      3.22303000
     C     -3.43104300      6.61817900      2.28433300
     C     -4.06144400      5.46286100      2.56226400
     C     -3.42381000      6.66441000     -0.21701300
     C     -3.36916600      7.28015400      0.97080600
     H     -1.12195100      7.53419500      5.29174700
     H     -4.00276700      4.99782300      3.54689900
     H     -3.39387800      7.23929000     -1.14504900
     H     -3.24198500      8.36664400      1.02399700
     H     -2.50039600      7.31326700      6.55888600
     H     -4.13905400      7.01999200      4.72837200
     H     -4.63383300      4.95864500      1.78478600
     H     -3.49415700      5.57671600     -0.30295800
