12
b3lypvdz=-157.10933185632 
     C     -2.70401100     -8.57945100      5.62858800
     C     -2.55770900     -8.60690900      3.08463800
     C     -2.95278300     -7.77941900      2.11245900
     C     -3.36286200     -8.98674300      4.29814600
     H     -2.60063900     -7.48364300      5.70148500
     H     -1.69610100     -9.01886300      5.72801700
     H     -3.30264000     -8.92630600      6.48717200
     H     -3.94244600     -7.30904400      2.12696000
     H     -1.55792800     -9.05948500      3.01756900
     H     -2.30716900     -7.54903500      1.26045100
     H     -4.36933900     -8.53885700      4.22447100
     H     -3.50077200    -10.08554700      4.30384400
