16
b3lypvdz=-234.452201347987 
     C     -2.70830300     -8.67016900      2.98623900
     C     -3.03488200     -7.72297900      2.10196400
     C     -3.50424900     -9.11641000      4.19120500
     C     -4.78168200     -8.29916900      4.45534200
     C     -3.82447000    -10.60078600      4.17038400
     C     -3.64801700    -11.44788300      3.15263200
     H     -3.96879600     -7.15775900      2.15940200
     H     -4.54237300     -7.24087900      4.64949600
     H     -5.31367000     -8.69433200      5.33631600
     H     -5.47545600     -8.35141000      3.60014500
     H     -3.22559900    -11.12061900      2.19840800
     H     -1.75515100     -9.19878400      2.85601000
     H     -2.36324400     -7.47462000      1.27555300
     H     -2.84302100     -8.96194500      5.07039100
     H     -4.26514500    -10.97898700      5.10270600
     H     -3.93154100    -12.50046800      3.23850600
