17
b3lypvdz=-272.514684055686 
     C     -1.42822100    -24.67169000     -2.25110600
     C     -1.49748700    -23.37739200     -2.57691800
     C     -2.04572100    -25.84597900     -2.98146000
     C     -2.29302400    -25.75189900     -4.46815100
     C     -2.65227200    -25.75996800     -7.53880200
     C     -1.73689600    -25.08176000     -6.82704300
     C     -1.53868700    -25.09579000     -5.36878100
     H     -1.99625300    -23.02919000     -3.48467000
     H     -2.70595300    -25.66097000     -8.62560900
     H     -1.03875500    -24.43980700     -7.37676500
     H     -0.68860300    -24.50977700     -5.00602100
     H     -0.91707900    -24.94544600     -1.31988000
     H     -1.04899300    -22.61733700     -1.93199900
     H     -3.00152400    -26.09201200     -2.47952900
     H     -1.41632500    -26.73828700     -2.79180900
     H     -3.14606600    -26.33724400     -4.83123200
     H     -3.37984100    -26.42895400     -7.07072500
