11
b3lypvdz=-231.070878852206 
     O     -2.35426900      0.65196800     -3.67574700
     C     -1.09675600      0.25912500     -3.28808300
     C     -0.38861600     -0.61290900     -4.00649700
     C     -2.84545500      1.85120900     -3.23510200
     C     -2.16783400      2.88777100     -2.73144500
     H     -0.76322100     -0.99841500     -4.95712600
     H     -1.08167500      2.90537200     -2.62890500
     H     -0.75512300      0.66943700     -2.33138200
     H      0.57334700     -0.96695300     -3.63452800
     H     -3.92979500      1.87063000     -3.37133500
     H     -2.72410200      3.77116400     -2.41575100
