15
b3lypvdz=-308.42232452972 
     O     -4.38904700    -14.68161400      4.00478500
     C     -3.38738300    -15.57422400      4.28336600
     C     -3.65267100    -16.88052600      4.44526200
     C     -2.66413400    -17.94264400      4.64910400
     C     -1.32515300    -17.83083900      4.69729900
     C     -3.40843600    -12.91449300      5.35078700
     C     -4.24676400    -13.38536700      4.42173900
     H     -4.70444700    -17.18181600      4.42065000
     H     -3.09563600    -18.94063400      4.78335500
     H     -2.73351900    -13.55001700      5.92568800
     H     -2.37923700    -15.14617700      4.30600700
     H     -0.80568300    -16.87645200      4.57094100
     H     -0.69873300    -18.70887400      4.86851400
     H     -3.41558000    -11.84566200      5.56972500
     H     -4.95357700    -12.74996100      3.88227700
