17
b3lypvdz=-272.521050018993 
     C     -3.35181300      6.90871800      2.41920200
     C     -4.35448800      5.57500500     -0.20390300
     C     -3.99840900      6.85617900     -0.00488900
     C     -3.28088800      7.38385200      1.16517300
     C     -5.11628400      5.07082200     -1.40660000
     C     -4.31054000      4.08418600     -2.22033600
     C     -4.64816200      2.80733600     -2.42272700
     H     -4.24414400      7.59093100     -0.78341100
     H     -2.65481600      8.26541100      0.97812600
     H     -5.56934900      2.38916800     -2.00260700
     H     -2.76733400      7.36039500      3.22468800
     H     -4.00284000      6.06974600      2.68360700
     H     -4.06008700      4.81474800      0.53024800
     H     -6.04931000      4.58191200     -1.07112900
     H     -5.40656300      5.92744100     -2.04126700
     H     -3.37782300      4.46994300     -2.65054900
     H     -4.01864900      2.13530500     -3.01242600
