15
b3lypvdz=-308.422920974841 
     O     -4.29421500    -14.82260000      3.89966400
     C     -3.33735300    -15.66823500      4.41030300
     C     -3.63616400    -16.90922800      4.79356300
     C     -3.45797800    -10.52444600      4.43433500
     C     -3.43364400    -11.46851200      5.38879600
     C     -3.51062000    -12.91822800      5.18431800
     C     -4.19816200    -13.48828700      4.17552200
     H     -4.66551700    -17.27334000      4.77807700
     H     -3.34008500    -11.14622800      6.43338300
     H     -3.02141000    -13.55603800      5.92636300
     H     -2.32347800    -15.25148700      4.42330900
     H     -2.84218200    -17.58327500      5.11525200
     H     -3.43898000     -9.46347800      4.69623300
     H     -3.48786300    -10.78015900      3.37022100
     H     -4.80744700    -12.90956000      3.47846100
