15
b3lypvdz=-308.41695288559 
     O     -2.19908600      0.86503800     -3.85398300
     C     -1.11056000      0.27352300     -3.26645400
     C      0.82624400     -1.67641700     -1.88940100
     C      0.44004400     -0.45741700     -1.48066300
     C     -0.69854100      0.32420400     -1.98687400
     C     -2.88153300      1.94466400     -3.34696800
     C     -2.44842100      2.92415000     -2.54852800
     H      1.01110700      0.02312200     -0.67593400
     H     -1.20603700      0.97773000     -1.27457100
     H     -1.43761700      2.96791900     -2.14514000
     H     -0.59374000     -0.33620100     -4.01202100
     H      0.26701800     -2.23516800     -2.64618100
     H      1.71051300     -2.15886300     -1.46616200
     H     -3.89258000      1.94150300     -3.76218100
     H     -3.13831000      3.73251300     -2.30323900
