16
b3lypvdz=-234.461399954154 
     C     -2.11356300    -26.03389100     -2.95100200
     C     -1.02518800    -27.10676800     -2.78616400
     C     -2.34893500    -25.68761500     -4.39390200
     C     -3.49659300    -25.89016900     -5.06412300
     C     -3.71470100    -25.63442400     -6.49586300
     C     -2.78224500    -25.68670100     -7.46012600
     H     -0.84091700    -27.32942200     -1.72226800
     H     -0.07010900    -26.77622900     -3.23004700
     H     -1.31961500    -28.04408500     -3.28697500
     H     -4.36443300    -26.26978600     -4.50917000
     H     -4.74658400    -25.40145200     -6.78678900
     H     -3.03444800    -25.46105700     -8.49942400
     H     -1.80173100    -25.12617600     -2.39907700
     H     -3.05530400    -26.37899000     -2.48938400
     H     -1.49154300    -25.25746700     -4.92920900
     H     -1.74619100    -25.96476800     -7.24247700
