11
b3lypvdz=-231.065199283936 
     O     -2.15214600      0.82362500     -3.81167400
     C     -1.20267000      0.10847700     -3.12263200
     C     -0.82036500      0.22342900     -1.84791800
     C     -2.81443000      1.89652200     -3.24375500
     C     -2.24238500      2.99762200     -2.75721500
     H     -1.23076000      0.97345500     -1.17117700
     H     -1.15790900      3.11918500     -2.71394200
     H     -0.78279600     -0.64235400     -3.79694700
     H     -0.06468000     -0.46554800     -1.46825900
     H     -3.90143400      1.77318600     -3.30541500
     H     -2.87192500      3.80920100     -2.38886600
