16
b3lypvdz=-234.459784787241 
     C     -1.74491600    -25.89084600     -3.11665500
     C     -1.52762700    -27.40158800     -2.94464400
     C     -2.08924100    -25.48794900     -4.53665100
     C     -3.39555700    -25.94874300     -5.05560900
     C     -3.66100000    -26.31248500     -6.31868000
     C     -1.25619100    -24.73459200     -5.27604500
     H     -1.26059300    -27.64232700     -1.90230800
     H     -0.71319600    -27.76216300     -3.59370000
     H     -2.43252200    -27.97580700     -3.20363300
     H     -4.20925600    -26.00879100     -4.31992600
     H     -4.66659800    -26.61700600     -6.61879100
     H     -0.28827100    -24.41247600     -4.88257000
     H     -0.84890900    -25.34070200     -2.78823100
     H     -2.56785500    -25.56884700     -2.44901300
     H     -2.88524600    -26.32994200     -7.08955300
     H     -1.52092400    -24.40113700     -6.28199200
