13
b3lypvdz=-704.333503474483 
     C     -4.56207800      9.99378400      9.76876600
     C     -5.27460600      9.24174500      8.93268600
     S     -4.88363200      7.49006200      8.74024500
     O     -3.77711000      7.16756200      9.68483300
     O     -6.16731800      6.73948300      8.74099000
     C     -4.23452300      7.41095000      7.06058100
     C     -2.94102500      7.18027600      6.85234900
     H     -3.72083500      9.56368700     10.31965800
     H     -2.25547200      7.06924500      7.69684000
     H     -4.81189500     11.04638900      9.93123800
     H     -6.13899500      9.57971200      8.35462100
     H     -4.99522700      7.51602400      6.28263400
     H     -2.54098400      7.08688100      5.83855800
