15
b3lypvdz=-196.395106569193 
     C     -1.58246800    -24.61734000     -2.28860400
     C     -1.52353800    -23.43417600     -2.90465400
     C     -2.18857600    -25.87693600     -2.85884900
     C     -3.39131000    -26.33848400     -2.01394100
     C     -1.12861400    -26.98803200     -2.95935800
     H     -1.93729000    -23.29439000     -3.90966900
     H     -3.08717400    -26.55587400     -0.97442500
     H     -3.83120700    -27.25993600     -2.43149600
     H     -4.17591400    -25.56484300     -1.98517500
     H     -0.72713900    -27.24145100     -1.96166600
     H     -0.28074900    -26.67842400     -3.59131000
     H     -1.55753700    -27.90904300     -3.38874400
     H     -1.15737900    -24.71890100     -1.27983000
     H     -1.06547900    -22.56113500     -2.43160700
     H     -2.55732500    -25.64753500     -3.87567200
