11
b3lypvdz=-231.071483690669 
     C      0.92250100     -6.18608500     -1.66590900
     C      0.17886400     -6.46106300     -0.59304600
     O      0.42857900     -7.55102200      0.19545500
     C     -0.45507500     -7.84720000      1.19561300
     C     -0.36026700     -8.97136300      1.90885500
     H      1.75433100     -6.82895600     -1.96017700
     H      0.42274400     -9.70581700      1.71083000
     H      0.69630400     -5.30051400     -2.25914600
     H     -0.66702600     -5.83810100     -0.27719300
     H     -1.23605300     -7.09669300      1.37190600
     H     -1.07950200     -9.16038600      2.70551300
