17
b3lypvdz=-272.519870141078 
     C     -0.39942300     -7.70447200      1.23558500
     C     -0.70805700     -8.98510100      1.49154200
     C     -1.60539000     -9.46422600      2.55346600
     C     -2.68746000     -8.80920800      3.00779600
     C     -3.59548000     -9.25730400      4.12687300
     C     -3.45518300    -10.69291800      4.55383500
     C     -3.18177000    -11.10608600      5.79488800
     H     -0.24025300     -9.76549400      0.87889700
     H     -1.36119100    -10.44263100      2.98305500
     H     -3.01414200    -10.39746500      6.61267000
     H      0.25972400     -7.43463400      0.40680800
     H     -0.78841700     -6.88750600      1.84998100
     H     -2.95810000     -7.85401600      2.54190800
     H     -3.44043400     -8.59566500      5.00124700
     H     -4.64125500     -9.07603300      3.80591500
     H     -3.61261700    -11.44117500      3.76638400
     H     -3.11685200    -12.16956700      6.04085000
