11
b3lypvdz=-231.070821503169 
     C      0.51337700     -6.38256600     -0.26223600
     C      0.37539100     -5.27176900      0.46919900
     O      0.20346400     -7.67228300      0.07392300
     C     -0.59271500     -7.92004200      1.16499600
     C     -0.54455600     -9.09441500      1.79493900
     H     -0.00485800     -5.26542300      1.49141900
     H      0.16636700     -9.86651800      1.49361000
     H      0.93467800     -6.36827800     -1.26995300
     H      0.67356100     -4.32190600      0.02367900
     H     -1.28780700     -7.11722700      1.43100600
     H     -1.23340200     -9.29877200      2.61481700
