17
b3lypvdz=-272.520578316302 
     C     -2.52571200     -8.57901600      3.14452400
     C     -2.85978800     -7.69070500      2.20397700
     C     -3.41637000     -9.03460500      4.27675600
     C     -3.64485100    -10.52578800      4.28004400
     C     -3.37898400    -11.34201000      5.31514000
     C     -3.57878300    -12.80011500      5.38014800
     C     -4.04981600    -13.61264800      4.41953300
     H     -3.84547500     -7.21314100      2.18670300
     H     -2.96860600    -10.88907600      6.22650400
     H     -3.29701500    -13.25745100      6.33588700
     H     -1.52921600     -9.03875300      3.11452300
     H     -2.15387900     -7.40177400      1.42061400
     H     -2.96808900     -8.73589300      5.24347200
     H     -4.38639400     -8.50803800      4.19798000
     H     -4.05268300    -10.93993300      3.34921200
     H     -4.35564100    -13.24542300      3.43535900
     H     -4.15019800    -14.68603100      4.59892400
