16
b3lypvdz=-234.452980209133 
     C     -1.56936100    -24.69527100     -2.33326700
     C     -1.65535100    -23.44334800     -2.79105900
     C     -2.07427500    -25.95174300     -3.01640800
     C     -1.02957100    -27.08154900     -2.89634700
     C     -2.44745600    -25.74540200     -4.46338900
     C     -3.65579300    -25.97071800     -4.98636300
     H     -2.12205500    -23.21148100     -3.75240000
     H     -0.76138600    -27.25986900     -1.84165400
     H     -0.10451900    -26.82098400     -3.43806300
     H     -1.42069800    -28.02094500     -3.31709300
     H     -4.49350500    -26.30113400     -4.36384600
     H     -1.10001000    -24.87139800     -1.35639800
     H     -1.26411900    -22.60409700     -2.21023700
     H     -2.98055600    -26.28020100     -2.47035000
     H     -1.62792500    -25.41625400     -5.11636800
     H     -3.85522000    -25.83780800     -6.05306000
