17
b3lypvdz=-309.656218176781 
     O     -2.37533600      7.01944500      3.42472700
     C     -3.15994300      6.64897000      2.37087600
     C     -4.26602200      5.68498000     -0.33958300
     C     -3.90865400      6.93263000      0.01975400
     C     -3.13215100      7.31364400      1.20282100
     C     -5.14215000      5.34330100     -1.51284100
     C     -6.52000800      4.79159200     -1.10032800
     H     -4.21803500      7.76099300     -0.63163400
     H     -2.51323500      8.21542700      1.14759300
     H     -7.09155400      5.54751200     -0.53557600
     H     -6.41804100      3.90352400     -0.45290400
     H     -7.11446000      4.49661600     -1.98101900
     H     -2.62989000      6.50021400      4.19927000
     H     -3.81692400      5.78463900      2.52557200
     H     -3.90990600      4.83809200      0.26313000
     H     -5.27590400      6.24067300     -2.14257400
     H     -4.63168600      4.59064900     -2.14408500
