12
b3lypvdz=-157.108963853256 
     C     -3.28311200    -26.16219600     -2.12976300
     C     -2.34936700    -25.77761600     -4.49523200
     C     -3.53527300    -25.92568800     -5.09362000
     C     -2.06947100    -25.89081400     -3.01850200
     H     -2.98108600    -26.22239100     -1.07122600
     H     -3.77430500    -27.11481000     -2.39304500
     H     -4.03971200    -25.36455500     -2.22322100
     H     -4.44715300    -26.14947500     -4.53355800
     H     -1.47344600    -25.54992500     -5.11757400
     H     -3.63773300    -25.82547800     -6.17792500
     H     -1.55967700    -24.96567900     -2.68424500
     H     -1.31516400    -26.68907300     -2.86859000
