16
b3lypvdz=-234.452338889477 
     C     -4.24763300      5.81792300     -0.29786300
     C     -3.87615900      7.08254900     -0.07678900
     C     -4.91761300      5.26736900     -1.53555200
     C     -5.34956000      6.33696600     -2.55514500
     C     -4.10023100      4.18517600     -2.21881700
     C     -2.82811900      3.86505100     -1.96536600
     H     -4.02160400      7.87291100     -0.81835500
     H     -6.01530300      7.08128500     -2.08934100
     H     -5.89085000      5.87466500     -3.39638300
     H     -4.47609000      6.86378600     -2.97271900
     H     -2.24688000      4.38857000     -1.20065100
     H     -4.06792900      5.07210000      0.48699500
     H     -3.40978400      7.37840800      0.86650200
     H     -5.84430800      4.76492700     -1.18466500
     H     -4.64249500      3.63807100     -3.00154600
     H     -2.31954200      3.07314500     -2.52150500
