9
b3lypvdz=-626.975943620682 
     S     -0.12987700    -19.02501000      4.57839300
     O     -0.35896600    -20.21795000      5.42639400
     O      0.99107800    -18.08228200      4.81201200
     C     -0.09103200    -19.55411700      2.85769800
     C      0.94310900    -19.19543200      2.10035300
     H      1.72492100    -18.54952500      2.51054500
     H     -1.29964100    -18.27504100      4.59072300
     H     -0.91450000    -20.21092400      2.56300200
     H      1.03720900    -19.54901900      1.06968000
