15
b3lypvdz=-308.42075196451 
     C     -3.27134600      7.11242600      4.42599100
     C     -4.59019100      7.33058100      4.40250900
     O     -2.51733300      6.41000800      3.51936400
     C     -3.06249400      6.11129100      2.26935900
     C     -3.11507000      4.82524100      1.89573400
     C     -4.22862200      7.29079700      0.38809600
     C     -3.39879900      7.28525800      1.44001100
     H     -5.23346200      6.95080300      3.60770700
     H     -2.84387400      4.03558600      2.59668900
     H     -4.38545900      8.19851500     -0.19987300
     H     -2.89533700      8.20886000      1.74464300
     H     -2.62433500      7.47168700      5.23031000
     H     -5.04679200      7.90689300      5.20834300
     H     -3.40300800      4.55840700      0.87866800
     H     -4.78307800      6.40034900      0.07845100
