15
b3lypvdz=-308.422884234473 
     O     -2.18210800      0.76743600     -3.72344200
     C     -1.10971600      0.12042700     -3.16526700
     C     -0.81051200      0.02882700     -1.86552600
     C     -4.47964800      4.17703100     -2.16579600
     C     -4.89869400      2.91102800     -2.32856900
     C     -4.16473700      1.84170800     -3.01079600
     C     -2.83101400      1.70516900     -2.96226600
     H     -1.43284200      0.46533000     -1.08242700
     H     -5.88153000      2.62972600     -1.93040900
     H     -4.73708400      1.09517700     -3.57123100
     H     -0.51164500     -0.35145100     -3.94792700
     H      0.08715700     -0.51325100     -1.56478400
     H     -5.07896000      4.90109600     -1.60829400
     H     -3.54013900      4.53114900     -2.60028600
     H     -2.18042800      2.33729700     -2.34578100
