15
b3lypvdz=-308.41704593618 
     O     -1.91852300      0.91516900     -3.80054300
     C     -0.95347300      0.25080000     -3.05733400
     C     -0.24705200     -0.67550900     -3.96260400
     C      0.62661500     -1.63024800     -3.61935100
     C     -0.72898000      0.42236100     -1.74531300
     C     -2.78631300      1.83041600     -3.24645800
     C     -2.44371100      3.00764100     -2.72313200
     H     -0.51478400     -0.53396200     -5.01449000
     H      1.08903100     -2.25831800     -4.38307900
     H     -1.30835000      1.12083800     -1.14442200
     H     -1.40258800      3.32360900     -2.63352900
     H      0.90822200     -1.82641300     -2.58182500
     H      0.05257700     -0.15779000     -1.25637800
     H     -3.82994200      1.51410200     -3.35452800
     H     -3.22472900      3.68110500     -2.36731400
