8
b3lypvdz=-79.764238112334 
     C     -6.49346300      4.89026700     -1.09876600
     C     -5.04073700      5.22233300     -1.46673400
     H     -7.01284700      5.76971400     -0.68113500
     H     -6.54387100      4.08657800     -0.34452300
     H     -7.06369100      4.55303400     -1.98096700
     H     -4.47051000      5.55956600     -0.58453400
     H     -4.99032900      6.02602200     -2.22097600
     H     -4.52135400      4.34288600     -1.88436600
