17
b3lypvdz=-272.519831995545 
     C     -3.98122800      4.90875700      0.85412200
     C     -4.68711300      5.62599700     -0.02391700
     C     -4.90434400      5.30003900     -1.48679200
     C     -4.18148200      4.08758900     -2.00011800
     C     -4.79020800      2.94489200     -2.36620600
     C     -4.15375100      1.72325200     -2.88064200
     C     -2.89908500      1.59057200     -3.34151200
     H     -3.49176900      3.97185400      0.57230500
     H     -5.88181700      2.89400900     -2.26152300
     H     -4.79926500      0.83667500     -2.88656800
     H     -3.87812400      5.23711600      1.89233400
     H     -5.17099900      6.55233500      0.31347900
     H     -5.99069100      5.20302000     -1.67280600
     H     -4.58694600      6.18547900     -2.07446600
     H     -3.08794100      4.16104300     -2.05737200
     H     -2.20449800      2.43433600     -3.39716600
     H     -2.52643800      0.62443500     -3.68935300
