16
b3lypvdz=-234.460943114993 
     C     -0.74581500     -7.76478400      0.78596900
     C     -2.53711500     -8.60907300      3.18982800
     C     -2.87634400     -7.84160500      2.13743100
     C     -2.05662000     -7.52991100      0.96052100
     C     -3.43517500     -8.90142700      4.35936600
     C     -2.75496900     -8.69006600      5.71936900
     H     -3.87823900     -7.39609800      2.13317100
     H     -2.60010300     -7.03873800      0.14466200
     H     -2.46301200     -7.63730200      5.86696900
     H     -1.84381000     -9.30514700      5.80782700
     H     -3.43071700     -8.97728800      6.54160000
     H     -0.24740900     -7.48510300     -0.14483800
     H     -0.12395300     -8.22720700      1.55737200
     H     -1.54979000     -9.08746800      3.20947800
     H     -4.34658100     -8.28457000      4.29206800
     H     -3.76974900     -9.95581300      4.29570700
