17
b3lypvdz=-309.656253630269 
     O      0.11661700     -7.74342200     -0.23662600
     C     -0.56232100     -7.86869700      0.94207000
     C     -0.83641500     -9.06701700      1.48740600
     C     -1.60271200     -9.25039300      2.72366600
     C     -2.62415200     -8.48799500      3.15951600
     C     -3.33859600     -8.67375800      4.47036900
     C     -4.85607900     -8.85764700      4.31388200
     H     -0.42920400     -9.95677700      0.99461900
     H     -1.30138000    -10.10513500      3.34494700
     H     -5.31995600     -7.97760400      3.83534400
     H     -5.34431700     -9.00332600      5.29146200
     H     -5.08728200     -9.73078400      3.68134500
     H      0.30334600     -6.80909000     -0.39423400
     H     -0.87791900     -6.93863100      1.42984800
     H     -2.99406200     -7.67741100      2.51621300
     H     -3.15344400     -7.79381300      5.11832200
     H     -2.90522200     -9.53720100      5.00475200
