13
b3lypvdz=-704.333438904549 
     C      0.70346300     -1.12952600     -3.44538200
     C      0.81928500     -1.43620700     -2.15535700
     S      2.21187200     -2.42093300     -1.57139400
     O      3.10346300     -2.70626800     -2.72990600
     O      2.70298400     -1.76092500     -0.33289900
     C      1.44711100     -3.97395600     -1.07049400
     C      1.66914200     -5.08875300     -1.76323500
     H      1.42043100     -1.51714800     -4.17428800
     H      2.28156000     -5.06995400     -2.66896600
     H     -0.10387600     -0.48142200     -3.79852000
     H      0.16898200     -1.07627900     -1.35445600
     H      0.87348800     -3.90557400     -0.14273700
     H      1.24869500     -6.04275600     -1.43256600
