19
b3lypvdz=-273.743642286393 
     C     -1.88454900    -26.07222100     -3.09452900
     C     -2.96897700    -25.70910600     -2.06029500
     C     -1.58765900    -27.58244100     -3.06037800
     C     -2.25856000    -25.58221300     -4.48960800
     C     -3.34723400    -26.29642000     -5.18981600
     C     -3.45518000    -26.46984400     -6.51602000
     C     -1.64213400    -24.51682000     -5.03324700
     H     -2.64702000    -26.00031000     -1.04614300
     H     -3.91986700    -26.22922800     -2.26690000
     H     -3.16733800    -24.62500700     -2.05745400
     H     -1.23426000    -27.88303000     -2.05948700
     H     -0.81025800    -27.86169700     -3.78923700
     H     -2.48692200    -28.17959400     -3.28656800
     H     -4.12373500    -26.74444500     -4.55704300
     H     -4.30997200    -26.99746200     -6.94761900
     H     -0.82384900    -24.01118100     -4.51268100
     H     -0.96371100    -25.53830400     -2.80390300
     H     -2.69633200    -26.10141500     -7.21270800
     H     -1.94444400    -24.10176100     -5.99766300
