11
b3lypvdz=-231.084587239357 
     O      0.17196400    -21.22422200     -0.79529800
     C     -0.08661200    -22.43798600     -1.38000200
     C      0.63216600    -23.55129600     -1.14328300
     C     -2.06887900    -23.32393300     -2.63047600
     C     -1.21963600    -22.33767500     -2.31872800
     H      1.45081100    -23.55610600     -0.41881100
     H     -2.86668500    -23.16897400     -3.36070700
     H     -1.34493000    -21.34253700     -2.75972500
     H      0.97761900    -21.30595100     -0.26260900
     H      0.41720500    -24.47190700     -1.68370900
     H     -1.99922200    -24.30981300     -2.16355300
