17
b3lypvdz=-272.517429789641 
     C     -0.10984000    -24.90399800     -1.76762500
     C     -1.26324900    -24.65680700     -2.41310400
     C     -1.81675100    -23.29714300     -2.62154400
     C     -1.34614400    -22.14101700     -2.13215000
     C     -2.09475100    -25.79141800     -2.97652200
     C     -2.10166000    -25.91556200     -4.48396900
     C     -1.31998400    -25.24907200     -5.33808900
     H      0.25107700    -25.92594100     -1.62846400
     H     -2.72098100    -23.26431200     -3.24010900
     H     -1.85078100    -21.19686500     -2.34946900
     H     -0.58399300    -24.51629300     -4.99526800
     H      0.51120400    -24.10321800     -1.36012700
     H     -0.45175900    -22.08774600     -1.50464800
     H     -3.14203100    -25.67453500     -2.63456900
     H     -1.75617300    -26.75061500     -2.54613500
     H     -2.82299000    -26.64216400     -4.88060500
     H     -1.39199300    -25.42239300     -6.41560300
