16
b3lypvdz=-234.461504953243 
     C     -0.02431200    -22.09367900     -1.36375600
     C     -1.62966100    -24.59559100     -2.30561700
     C     -1.66066100    -23.34756100     -2.80473400
     C     -1.07031400    -22.14370100     -2.20405900
     C     -2.23563300    -25.79902000     -2.97393200
     C     -3.31542600    -26.48787600     -2.12651100
     H     -2.19754000    -23.18737000     -3.74850400
     H     -1.53661700    -21.19861800     -2.50997200
     H     -2.90766800    -26.83365500     -1.16123100
     H     -3.72461500    -27.36743400     -2.65032600
     H     -4.14956800    -25.79996300     -1.91167400
     H      0.32756300    -21.14302300     -0.95536700
     H      0.51913500    -22.99326300     -1.06027200
     H     -1.15206500    -24.77604800     -1.33343400
     H     -1.43324400    -26.53187400     -3.18589400
     H     -2.65487500    -25.50492200     -3.95171700
