15
b3lypvdz=-196.394284610514 
     C     -2.57684600     -8.58064600      3.09936500
     C     -2.92091300     -7.78372000      2.08248600
     C     -3.41233200     -8.96590400      4.30006100
     C     -2.68632500     -8.58876400      5.60744500
     C     -4.84300800     -8.41920200      4.28395700
     H     -3.90614600     -7.31510000      2.00630400
     H     -2.59717800     -7.49254400      5.70255900
     H     -1.67018500     -9.01555500      5.64447600
     H     -3.23901000     -8.96658300      6.48412500
     H     -4.85480000     -7.31664500      4.35141900
     H     -5.41051800     -8.80892600      5.14513300
     H     -5.38190600     -8.71019300      3.36778200
     H     -1.56936100     -9.01981500      3.09302500
     H     -2.21655600     -7.57786500      1.27125900
     H     -3.47021500    -10.07424000      4.28610400
