17
b3lypvdz=-272.520436428208 
     C     -0.13794800    -22.19321500     -1.16114400
     C      0.29396900    -23.46335300     -1.09387600
     C     -0.29593000    -24.65531900     -1.72829700
     C     -1.42524000    -24.71727200     -2.45595800
     C     -1.98227800    -25.97135300     -3.08224200
     C     -2.25463000    -25.82161500     -4.56100600
     C     -3.44901500    -25.97784900     -5.13880800
     H      1.20036300    -23.66015700     -0.50966400
     H      0.26147300    -25.58722200     -1.56943600
     H     -4.33718500    -26.23819800     -4.55292700
     H      0.39847400    -21.39471800     -0.64350500
     H     -1.02841600    -21.90288400     -1.72761700
     H     -2.01153300    -23.80568200     -2.63082500
     H     -2.92841300    -26.25145600     -2.58058000
     H     -1.27407000    -26.80320400     -2.91186500
     H     -1.38976800    -25.54638000     -5.17946600
     H     -3.58415500    -25.85492200     -6.21728600
