12
b3lypvdz=-157.109229174216 
     C     -1.11692700    -27.18208500     -2.81543400
     C     -2.34584100    -25.75515300     -4.50254000
     C     -3.55411500    -25.91610300     -5.05130300
     C     -2.02619400    -25.96399800     -3.04649800
     H     -0.88512500    -27.30838900     -1.74422700
     H     -0.16071500    -27.07810100     -3.35604300
     H     -1.60370900    -28.10527100     -3.17197200
     H     -4.42435900    -26.19006700     -4.44508900
     H     -1.50096800    -25.47869800     -5.14861500
     H     -3.71635100    -25.77403900     -6.12389100
     H     -1.52538300    -25.06056300     -2.64816000
     H     -2.96271400    -26.08393300     -2.47462600
