15
b3lypvdz=-308.423632970354 
     O     -2.33467300      0.66077200     -3.47780800
     C     -1.01799700      0.31016500     -3.31997300
     C     -0.42223100     -0.54144200     -4.15538900
     C     -5.10552700      2.78105900     -2.68035600
     C     -4.26209800      1.74195900     -2.72125800
     C     -2.80196100      1.82893200     -2.90746900
     C     -2.02719500      2.87745700     -2.57479100
     H     -0.94671100     -0.93683500     -5.02823000
     H     -6.17424100      2.62505800     -2.51247000
     H     -4.64839200      0.72060500     -2.63538200
     H     -0.96468500      2.91977700     -2.81497300
     H     -0.53125900      0.73587800     -2.43458900
     H      0.59761100     -0.87218400     -3.95590500
     H     -4.76034700      3.81087300     -2.81237500
     H     -2.47439300      3.73612600     -2.07363300
