17
b3lypvdz=-272.518476457557 
     C     -4.41804400      5.68587100     -0.19082400
     C     -3.92480200      6.90875400      0.02684100
     C     -4.99875000      5.20544000     -1.49837600
     C     -4.32837200      3.95938000     -2.06303400
     C     -5.03848700      2.84190600     -2.29616400
     C     -2.05382100      3.15659600     -2.84167100
     C     -2.87920100      4.09158700     -2.34663900
     H     -3.89865700      7.66324000     -0.76823800
     H     -6.10594600      2.79179500     -2.06457600
     H     -0.99829000      3.38258100     -3.01329200
     H     -2.45150500      5.07134400     -2.10520500
     H     -4.42322900      4.95410500      0.62871500
     H     -3.53197500      7.20428100      1.00361600
     H     -6.07325900      4.98864300     -1.36177500
     H     -4.92359700      6.02431200     -2.23912700
     H     -4.58611100      1.94335700     -2.72364700
     H     -2.39135400      2.14780600     -3.09900300
