17
b3lypvdz=-272.515715723587 
     C     -0.20852500    -24.75431100     -1.64709500
     C     -1.28597100    -24.67484000     -2.43396000
     C     -1.98744700    -25.84737200     -3.07023100
     C     -2.16390700    -25.70988900     -4.58479000
     C     -3.54169200    -25.85775900     -5.10705600
     C     -3.94640200    -25.81799800     -6.38706800
     C     -1.09704200    -25.45876700     -5.36396700
     H      0.26179000    -25.71562200     -1.41264700
     H     -4.31442700    -26.01520500     -4.34457300
     H     -5.00349200    -25.93482800     -6.63854200
     H     -0.10077900    -25.33960800     -4.93044200
     H      0.23674200    -23.85903200     -1.20326100
     H     -1.72010500    -23.68968400     -2.65058300
     H     -2.98172700    -25.95642900     -2.59965200
     H     -1.43746700    -26.77692300     -2.84089900
     H     -3.25602800    -25.67513600     -7.22362100
     H     -1.17412200    -25.35399900     -6.44961200
