19
b3lypvdz=-273.736885404639 
     C     -2.57959200     -8.67168200      3.20528400
     C     -2.87426900     -7.94402800      2.12377700
     C     -3.47941200     -8.99781800      4.39402400
     C     -2.78706600     -8.50923400      5.68214500
     C     -4.86942000     -8.34095200      4.27742400
     C     -3.65980200    -10.51279300      4.38540200
     C     -3.16845300    -11.39786000      5.25759700
     H     -3.85112300     -7.47857000      1.96806100
     H     -2.66940800     -7.41421900      5.65803000
     H     -1.78558500     -8.95334900      5.79942100
     H     -3.38640300     -8.77505600      6.56854200
     H     -4.78735300     -7.24220000      4.24093500
     H     -5.48799000     -8.61050900      5.14848000
     H     -5.39944500     -8.67593400      3.37146100
     H     -2.55801600    -11.10382800      6.11551100
     H     -1.57994800     -9.11973500      3.27979500
     H     -2.12934200     -7.78945900      1.33767800
     H     -4.25547700    -10.88022300      3.53915500
     H     -3.36599500    -12.46715000      5.13837700
