15
b3lypvdz=-308.423060348885 
     C      0.53059000     -6.36292400     -0.33800800
     C      0.48171300     -5.24039700      0.38606000
     O      0.16496200     -7.63071000      0.02805500
     C     -0.59099400     -7.82170800      1.15392100
     C     -0.55700900     -8.99474600      1.80679500
     C     -1.41631000     -9.33594800      2.94324500
     C     -2.65981100     -8.88159000      3.17437900
     H      0.14800500     -5.20454600      1.42415500
     H      0.17605500     -9.73886800      1.47838100
     H     -0.98194400    -10.04335400      3.66037300
     H      0.90831100     -6.38362000     -1.36257200
     H      0.80877900     -4.30903900     -0.07794200
     H     -1.23524600     -6.98620200      1.44632300
     H     -3.17664100     -8.22221000      2.47054000
     H     -3.20436000     -9.17253700      4.07579300
