19
b3lypvdz=-273.732468393883 
     C     -1.38900600    -24.68312100     -2.35798900
     C     -1.53953800    -23.40895900     -2.72866300
     C     -2.01807600    -25.92558400     -2.98211600
     C     -3.36854500    -26.18451900     -2.26603300
     C     -1.07957300    -27.13413900     -2.73494400
     C     -2.27322600    -25.84650200     -4.48457300
     C     -1.55287600    -25.19898000     -5.40369100
     H     -2.11516700    -23.12203200     -3.61244700
     H     -3.23239200    -26.26627800     -1.17497700
     H     -3.81639300    -27.12537800     -2.63025000
     H     -4.07430400    -25.36148500     -2.46063800
     H     -0.93748400    -27.30130900     -1.65340600
     H     -0.09616500    -26.96240700     -3.19963900
     H     -1.50380300    -28.05282100     -3.17173300
     H     -0.69753100    -24.57167400     -5.13875300
     H     -0.80225900    -24.89654800     -1.45446700
     H     -1.07954300    -22.60189400     -2.15178500
     H     -3.11311200    -26.46781700     -4.82342900
     H     -1.80310800    -25.28005300     -6.46596600
