17
b3lypvdz=-272.517404838504 
     C     -1.58051400    -24.61696500     -2.35680800
     C     -1.84839500    -23.37268300     -2.76341600
     C     -1.93628100    -25.89850700     -3.07652600
     C     -2.35207700    -25.75292200     -4.52719200
     C     -3.63088900    -25.93980300     -4.89886000
     C     -1.34533100    -25.23671000     -6.79668900
     C     -1.25894600    -25.41705200     -5.47097900
     H     -2.35423400    -23.17037300     -3.71119400
     H     -4.39998500    -26.18934000     -4.16526800
     H     -0.45634600    -25.00590400     -7.38769100
     H     -0.27301500    -25.31537400     -5.00276700
     H     -1.07295400    -24.76285700     -1.39500200
     H     -1.56424900    -22.51070400     -2.15462200
     H     -2.73849900    -26.40570300     -2.51070800
     H     -1.06680600    -26.58181100     -3.01714400
     H     -3.95102600    -25.85179900     -5.93939400
     H     -2.29115200    -25.31109300     -7.34014100
