17
b3lypvdz=-309.657296703417 
     O      0.49489400    -21.04860000     -0.73118600
     C     -0.08065600    -22.15639700     -1.27908700
     C      0.39818300    -23.41340300     -1.20994800
     C     -0.21146000    -24.62884200     -1.76998900
     C     -1.33593200    -24.72779300     -2.50484000
     C     -1.96537100    -25.99632200     -3.02508200
     C     -1.17991000    -27.29259100     -2.80821200
     H      1.33995100    -23.57026100     -0.66795500
     H      0.33535000    -25.54683500     -1.53008000
     H     -1.04059800    -27.51213200     -1.73613600
     H     -0.18290100    -27.24252100     -3.27617500
     H     -1.71664600    -28.14509200     -3.25595300
     H      1.32122400    -21.31492300     -0.29698000
     H     -1.01083900    -21.88348100     -1.78518000
     H     -1.88841700    -23.81485100     -2.76656600
     H     -2.96770200    -26.10068900     -2.56280300
     H     -2.16097100    -25.86666900     -4.10782700
