9
b3lypvdz=-626.975955083696 
     C      0.82221000     -1.44677500     -2.04545700
     C      0.18861100     -0.54263400     -1.30176900
     S      2.25826400     -2.29714800     -1.37438000
     O      3.33148300     -2.26519500     -2.39595800
     O      2.47606400     -1.85614500      0.02607100
     H      0.51372700     -0.34294500     -0.27658800
     H      0.58227600     -1.70625300     -3.08032700
     H     -0.65737500      0.02193500     -1.70400800
     H      1.76614000     -3.59844000     -1.32338400
