11
b3lypvdz=-231.084472529278 
     O     -4.33117400    -14.65131100      4.24456600
     C     -3.51808000    -12.86123800      5.61339200
     C     -3.99238900    -13.33670800      4.44651800
     C     -4.22172700    -12.56070600      3.21118800
     C     -4.06235300    -11.24126300      3.04235200
     H     -3.37716100    -13.51465500      6.47865000
     H     -4.56288500    -13.17085700      2.36870600
     H     -4.26530000    -10.77732800      2.07442500
     H     -4.15751700    -15.13652000      5.06570800
     H     -3.24649800    -11.81272000      5.73207400
     H     -3.73591700    -10.57949400      3.84982100
