16
b3lypvdz=-234.459840686459 
     C     -2.05089700    -25.99422000     -3.06321800
     C     -1.09549800    -27.19554800     -2.98622100
     C     -2.45643100    -25.66314800     -4.48579500
     C     -3.72296100    -25.81217100     -4.91194100
     C     -1.21607300    -25.47792200     -6.66536900
     C     -1.37161100    -25.17499000     -5.36823600
     H     -0.79830100    -27.40338500     -1.94502700
     H     -0.17751600    -27.01436100     -3.56941000
     H     -1.57500500    -28.10095600     -3.39485800
     H     -4.50166800    -26.19216400     -4.24499500
     H     -0.39101100    -25.06035900     -7.24857400
     H     -0.61839200    -24.53663300     -4.88605400
     H     -1.55646100    -25.11112600     -2.61386300
     H     -2.95119300    -26.19027100     -2.45832500
     H     -4.02192200    -25.54183700     -5.92780600
     H     -1.90275800    -26.15600800     -7.18220700
