16
b3lypvdz=-234.458808762377 
     C     -3.49310900     -9.16193400      4.10942200
     C     -4.78943300     -8.47884300      4.57896800
     C     -3.59400700    -10.67548100      4.06864000
     C     -3.58273500    -11.35462500      5.38617300
     C     -3.73536000    -12.66273500      5.63987100
     C     -3.69508700    -11.32608500      2.89552000
     H     -4.66655000     -7.38364700      4.61922100
     H     -5.08600200     -8.82084800      5.58469300
     H     -5.62239600     -8.70514000      3.89368600
     H     -3.41721100    -10.69039000      6.24361600
     H     -3.69021000    -13.04375400      6.66268300
     H     -3.70031800    -10.77738700      1.95045700
     H     -3.22229100     -8.78938700      3.10833800
     H     -2.66759300     -8.87200400      4.78552200
     H     -3.90739300    -13.39795800      4.84852800
     H     -3.77870300    -12.41458100      2.83596100
