13
b3lypvdz=-704.334606192564 
     C     -2.75046400    -18.01850100      4.96057000
     C     -1.59245300    -17.78841100      4.34479600
     S     -0.26884700    -19.00786600      4.43029200
     O     -0.77302900    -20.19636700      5.16989700
     O      0.95626700    -18.27421200      4.84958500
     C     -0.03559900    -19.51191600      2.71788900
     C      1.11023900    -19.20440000      2.11301900
     H     -2.92186900    -18.96868100      5.47378600
     H      1.86108900    -18.61252000      2.64460800
     H     -3.54014200    -17.26166300      4.97709800
     H     -1.31194200    -16.86866600      3.82510700
     H     -0.85093900    -20.11071900      2.30507300
     H      1.32768800    -19.54657800      1.09798100
