15
b3lypvdz=-271.397240078088 
     C     -2.03356000    -25.90964800     -3.02147400
     C     -2.27974100    -25.74446400     -4.50606900
     C     -3.54219300    -26.00382900     -5.06344500
     C     -3.76317800    -25.87097400     -6.43844500
     C     -2.72244100    -25.47218300     -7.28210300
     C     -1.46066300    -25.20847100     -6.74000400
     C     -1.24451500    -25.34317000     -5.36490300
     H     -4.36695000    -26.31235100     -4.41418100
     H     -4.75303500    -26.07866600     -6.85424000
     H     -2.89645000    -25.35895800     -8.35571200
     H     -0.64165100    -24.88836400     -7.38946400
     H     -0.25582900    -25.12296300     -4.95140900
     H     -1.25757900    -25.21566900     -2.66293200
     H     -2.94882000    -25.71847400     -2.43850300
     H     -1.69509700    -26.93591700     -2.78931400
