13
b3lypvdz=-704.333515613774 
     C     -1.40926800    -17.67258000      4.41268000
     C     -1.12721000    -16.37345400      4.47778700
     S     -0.08255800    -18.89047700      4.49159000
     O     -0.54676000    -19.97393500      5.39786700
     O      1.19601700    -18.15484600      4.70593000
     C     -0.04555200    -19.59149000      2.83260000
     C      0.98630600    -19.34531500      2.02867600
     H     -0.08973700    -16.03301600      4.53903000
     H      1.79262100    -18.68136000      2.35228000
     H     -2.41245200    -18.10547300      4.37570100
     H     -1.92472100    -15.62524000      4.48407400
     H     -0.88484500    -20.25466000      2.60720300
     H      1.05235900    -19.81045600      1.04108100
