15
b3lypvdz=-308.422816548685 
     C      0.36117900    -20.77187400      0.34266800
     C      1.11226300    -19.77016100      0.80173600
     O      0.04059600    -20.86806400     -0.99083200
     C     -0.20942500    -22.09818000     -1.52694600
     C      0.13171700    -23.29945500     -1.02023300
     C     -0.21062000    -24.57192900     -1.66222600
     C     -1.27369900    -24.81959700     -2.44650600
     H      1.54786600    -19.03536900      0.12221100
     H      0.73694600    -23.34847800     -0.11027000
     H      0.49063400    -25.39204800     -1.46222300
     H     -0.09102400    -21.53883800      0.98120100
     H      1.29035300    -19.67005000      1.87292900
     H     -0.71557100    -21.99151700     -2.48866300
     H     -2.04125500    -24.06372600     -2.63806600
     H     -1.41285900    -25.79541600     -2.91737800
