12
b3lypvdz=-232.108886442901 
     C     -2.30433900    -25.72858800     -4.52217900
     C     -3.57259200    -25.96556600     -5.06368400
     C     -3.78016300    -25.83717600     -6.44117500
     C     -2.72021200    -25.47181300     -7.27721500
     C     -1.45195600    -25.23479900     -6.73567300
     C     -1.24437900    -25.36315100     -5.35819500
     H     -4.40074600    -26.25349100     -4.41143800
     H     -4.76945100    -26.02649500     -6.86588000
     H     -2.88391600    -25.36892800     -8.35335400
     H     -0.62383700    -24.94688400     -7.38797100
     H     -0.25511900    -25.17371600     -4.93348200
     H     -2.14058900    -25.83159500     -3.44605500
