17
b3lypvdz=-309.658958316302 
     O     -2.73878600      6.80417900      3.75818500
     C     -3.40135000      6.42764400      2.63389400
     C     -3.12825000      5.36457000      1.85412500
     C     -3.87531600      5.01392300      0.64339400
     C     -4.46496900      5.86424800     -0.21666200
     C     -5.32013000      5.43707500     -1.37793500
     C     -4.88967700      6.02271600     -2.73338500
     H     -2.32610100      4.67889200      2.15991600
     H     -3.96823500      3.93741300      0.44113400
     H     -4.99050000      7.12214800     -2.74966800
     H     -5.51538900      5.61955200     -3.54635600
     H     -3.83798800      5.77791000     -2.95818600
     H     -1.98354700      6.20766200      3.88693200
     H     -4.23547400      7.10592400      2.43355100
     H     -4.32667300      6.94548400     -0.07527100
     H     -6.36687000      5.74633000     -1.18555000
     H     -5.32914600      4.33373100     -1.43051700
