16
b3lypvdz=-234.453498610792 
     C     -2.59073000     -8.66506100      3.18993400
     C     -2.85220500     -7.83806500      2.17322400
     C     -3.52212200     -9.06459300      4.32050900
     C     -4.90376300     -8.39370600      4.26897400
     C     -3.64938600    -10.57400600      4.36060800
     C     -3.20986700    -11.36176400      5.34526600
     H     -3.81647300     -7.33806000      2.04875200
     H     -4.81809200     -7.29565700      4.30547200
     H     -5.51963600     -8.72229700      5.12066200
     H     -5.44304400     -8.66184600      3.34388500
     H     -2.70640500    -10.94735900      6.22591000
     H     -1.60163600     -9.13784700      3.24261100
     H     -2.09099700     -7.62654000      1.41665600
     H     -3.02297900     -8.76362500      5.26398300
     H     -4.14678700    -11.02088900      3.48799500
     H     -3.34137800    -12.44728400      5.31465900
