13
b3lypvdz=-195.168731742593 
     C     -0.20046600    -24.68375800     -1.74288900
     C     -1.35968700    -24.70757400     -2.40541900
     C     -2.00773800    -25.94069600     -2.98952600
     C     -2.29094500    -25.81044000     -4.46728300
     C     -3.50073200    -25.88289500     -5.02818700
     H      0.38131200    -25.59674200     -1.57218400
     H     -4.40036500    -26.05274100     -4.42613600
     H      0.20787600    -23.75315200     -1.33861200
     H     -1.90774900    -23.76863100     -2.56376200
     H     -2.96011700    -26.14602100     -2.46473700
     H     -1.34788100    -26.80906500     -2.80609600
     H     -1.41470900    -25.62276500     -5.10283900
     H     -3.63849700    -25.77702000     -6.10832900
