17
b3lypvdz=-272.520236953785 
     C     -4.27750500      5.86665900     -0.20380300
     C     -3.99780600      7.17107700     -0.12325800
     C     -5.04166400      5.21315800     -1.32343200
     C     -4.28160000      4.18075800     -2.12300800
     C     -2.75229600      1.75438300     -3.30062000
     C     -2.24484400      2.88552600     -2.78572200
     C     -2.97237000      3.89995200     -2.00941200
     H     -4.31247400      7.87332100     -0.90294900
     H     -1.17816000      3.09242000     -2.93897600
     H     -2.36776500      4.48946700     -1.31065300
     H     -3.93647000      5.19889200      0.59752900
     H     -3.45007000      7.58632000      0.72718700
     H     -5.93836800      4.71282100     -0.90480200
     H     -5.43488600      5.98683100     -2.01075600
     H     -4.87950600      3.63689400     -2.86469400
     H     -3.79465600      1.46121800     -3.14321100
     H     -2.12786100      1.07190100     -3.88232100
