16
b3lypvdz=-234.453276182626 
     C     -4.41973000      5.73294700     -0.23167500
     C     -3.91898200      6.94586900      0.02378600
     C     -5.03868300      5.25683800     -1.53285600
     C     -5.12416000      6.34749900     -2.61310300
     C     -4.29582400      4.04305000     -2.05412700
     C     -4.83048100      2.83875700     -2.27343600
     H     -3.91067300      7.74695200     -0.72119700
     H     -5.69039100      7.22278600     -2.25600200
     H     -5.62654500      5.95360300     -3.51050700
     H     -4.12016700      6.69417600     -2.91230300
     H     -5.88685600      2.63300300     -2.06462700
     H     -4.39039500      4.97211100      0.56017800
     H     -3.49596600      7.18483100      1.00337600
     H     -6.06795600      4.92176900     -1.29232100
     H     -3.23149200      4.20778000     -2.27474000
     H     -4.23350000      2.01112800     -2.66704500
