16
b3lypvdz=-234.447817140345 
     C     -3.72011000      4.98577700      0.80847600
     C     -4.47249700      5.67703300     -0.05279600
     C     -5.03496800      5.21806800     -1.38639600
     C     -6.53668300      4.88806700     -1.21546700
     C     -4.31231900      4.07976700     -2.08665500
     C     -2.99466700      3.85796900     -2.13698800
     H     -3.37223100      3.97191400      0.59469200
     H     -7.08553800      5.74449500     -0.79045100
     H     -6.67499300      4.02994800     -0.53737700
     H     -7.00096200      4.63779000     -2.18521300
     H     -2.27733500      4.49297900     -1.60947000
     H     -3.42934600      5.42422300      1.76717400
     H     -4.79724600      6.68534300      0.23745800
     H     -4.98355000      6.08746300     -2.07279600
     H     -4.96591500      3.40449600     -2.65515600
     H     -2.59134000      3.02416700     -2.71863500
