17
b3lypvdz=-272.519483452976 
     C     -0.23713900     -8.82407600      2.10914200
     C     -1.25827600     -9.33124900      2.81552000
     C     -2.58523400     -8.70722200      3.00005600
     C     -3.15963600     -7.92305800      2.07099700
     C     -3.29389500     -9.02853200      4.31128300
     C     -3.71973000    -10.47493500      4.40501800
     C     -3.31599100    -11.33257100      5.34737200
     H      0.70861600     -9.36507400      2.02137100
     H     -1.11033800    -10.28233900      3.34119700
     H     -4.13185600     -7.45437500      2.24528100
     H     -2.62347400    -11.02499900      6.13877600
     H     -0.30738500     -7.85600800      1.60405500
     H     -2.68250900     -7.73381300      1.10581600
     H     -2.63013300     -8.79011000      5.16126200
     H     -4.18360000     -8.38123000      4.39911800
     H     -4.40693800    -10.81919900      3.62055100
     H     -3.67118500    -12.36681100      5.36878600
