15
b3lypvdz=-308.423109338984 
     C     -0.37382100    -21.24754900      1.49649500
     C      0.21286100    -20.66543800      0.44565000
     O      0.06041800    -20.97473300     -0.87936200
     C     -0.52656200    -22.16626200     -1.21801900
     C     -1.34339700    -24.77834800     -2.65110800
     C     -1.80831800    -23.53458500     -2.85761500
     C     -1.23613900    -22.28376700     -2.35154800
     H     -1.09216100    -22.06433500      1.40481600
     H     -2.71044500    -23.41529800     -3.46986000
     H     -1.42895900    -21.37128600     -2.92550900
     H     -0.13811300    -20.88445500      2.49786600
     H      0.90079400    -19.82233500      0.54596700
     H     -0.33540300    -22.99459500     -0.52636400
     H     -0.41651800    -24.96869200     -2.10191400
     H     -1.87503700    -25.64682100     -3.04679700
