15
b3lypvdz=-308.423197747246 
     C      0.45245500    -20.84014200      0.41618500
     C      1.08425700    -19.70029800      0.70193100
     O     -0.16072800    -21.02666700     -0.79563200
     C     -0.32780200    -22.30662300     -1.28815100
     C      0.39641100    -23.36848300     -0.89183000
     C     -1.98496900    -23.36561800     -2.86518400
     C     -1.37782900    -22.30081300     -2.32604600
     H      1.18649200    -18.91034800     -0.04571800
     H      1.18847900    -23.29361400     -0.14634400
     H     -2.74184300    -23.23477600     -3.64243500
     H     -1.66984100    -21.29794800     -2.65666800
     H      0.33081700    -21.66075200      1.13342400
     H      1.49383200    -19.53787700      1.69939800
     H      0.22474300    -24.34434500     -1.34684200
     H     -1.76427400    -24.39029600     -2.55028700
