15
b3lypvdz=-308.415915297432 
     C     -3.16525900      7.03464200      4.64578800
     C     -4.48655700      6.93515400      4.81150800
     O     -2.44201000      6.93702800      3.48116200
     C     -3.07736100      6.62022500      2.29208400
     C     -3.47235900      5.37267900      1.99889800
     C     -4.08496100      4.90130000      0.74851200
     C     -4.36522000      5.60028700     -0.36474800
     H     -5.17041500      6.73088100      3.98647900
     H     -3.32887100      4.61809300      2.77920300
     H     -4.33640600      3.83475200      0.75122900
     H     -2.47810900      7.23395700      5.47185600
     H     -4.90462200      7.05485200      5.81182900
     H     -3.15010800      7.46986200      1.60363700
     H     -4.14987600      6.66854100     -0.46540500
     H     -4.81936700      5.10814700     -1.22783200
