15
b3lypvdz=-308.415716215368 
     O     -4.38093400    -14.68455200      4.51931000
     C     -3.39647000    -15.63686300      4.46903700
     C     -1.25645300    -17.85773400      4.27296500
     C     -1.07055700    -16.52689500      4.26305600
     C     -2.07012700    -15.45482500      4.33569700
     C     -3.47283700    -12.66572900      5.45287500
     C     -4.07359300    -13.33465900      4.47079900
     H     -0.03880500    -16.16362400      4.18742000
     H     -1.68860900    -14.43318000      4.27913400
     H     -3.11742900    -13.16745800      6.35521200
     H     -3.86078300    -16.62248800      4.54434400
     H     -2.24754300    -18.31627100      4.33817400
     H     -0.40559300    -18.53956800      4.21513600
     H     -3.31486600    -11.58993500      5.35603200
     H     -4.44199900    -12.85551900      3.55751000
