9
b3lypvdz=-626.976098243636 
     S     -0.16882500    -19.07780700      4.60422300
     O     -0.94980500    -20.04091600      5.42055500
     O      1.19526900    -18.63204800      4.97600400
     C     -0.11211000    -19.65315700      2.89977700
     C     -0.69799400    -20.80183000      2.57048400
     H     -1.24825700    -21.37965700      3.31798500
     H     -0.95687300    -17.93977000      4.45661000
     H      0.47973700    -19.02130500      2.23163700
     H     -0.62784200    -21.19591000      1.55212400
