11
b3lypvdz=-231.070939746207 
     C     -0.41779000    -21.36504200      1.44745500
     C      0.14373500    -20.71516800      0.42246000
     O     -0.00131300    -20.96220800     -0.91646900
     C     -0.53079200    -22.16414200     -1.31708600
     C     -1.19979400    -22.27886700     -2.46496600
     H     -1.10368900    -22.20373900      1.32003000
     H     -1.40069300    -21.40783100     -3.09197700
     H     -0.18266300    -21.03398200      2.45970600
     H      0.79922000    -19.85250900      0.56276500
     H     -0.30894600    -23.00795200     -0.65477200
     H     -1.54467400    -23.25835800     -2.79684700
