16
b3lypvdz=-234.461427907938 
     C     -0.75643900     -7.97562500      0.68945700
     C     -0.47525000     -8.88473700      1.63706400
     C     -1.35803900     -9.32525200      2.72606100
     C     -2.30801200     -8.59504900      3.33789600
     C     -3.21146400     -9.11322800      4.42301500
     C     -2.97511900     -8.46231600      5.79550000
     H      0.50076900     -9.38461900      1.59740500
     H     -1.19535000    -10.35276900      3.07973200
     H     -3.13043700     -7.37021800      5.75959700
     H     -1.94545600     -8.64651000      6.14455600
     H     -3.66827900     -8.87397400      6.54725500
     H     -0.01515500     -7.70873400     -0.06810800
     H     -1.73012400     -7.48097600      0.62732800
     H     -2.44250300     -7.54290100      3.05378500
     H     -4.26235100     -8.93354600      4.12313500
     H     -3.09059200    -10.20754600      4.50792200
