15
b3lypvdz=-308.421488870318 
     O     -2.24013000      0.91854000     -3.77039900
     C     -1.14009100      0.31304000     -3.22590800
     C      0.91103200     -1.60652400     -1.95055100
     C      0.35447400     -0.50590500     -1.42096300
     C     -0.83677700      0.19365900     -1.92046700
     C     -4.32598900      1.78744500     -3.07266400
     C     -2.99830200      1.74168800     -2.96948400
     H      0.80285200     -0.07930000     -0.51494900
     H     -1.49346000      0.64059900     -1.16859600
     H     -4.86266200      1.12141800     -3.75159500
     H     -0.50475200     -0.09017700     -4.01685800
     H      0.47494500     -2.11068900     -2.81796400
     H      1.81614000     -2.04281400     -1.52123500
     H     -4.89117300      2.50709600     -2.47922600
     H     -2.42080800      2.38082500     -2.29154100
