15
b3lypvdz=-196.394168725447 
     C     -3.46251300     -9.10599100      4.41546500
     C     -2.75980800     -8.52991300      5.64814100
     C     -4.81080500     -8.40358400      4.16148400
     C     -3.65365200    -10.60644500      4.46217700
     C     -3.22264500    -11.45042800      5.40537200
     H     -2.56808600     -7.45246700      5.51909600
     H     -1.79193100     -9.02136900      5.83528500
     H     -3.38275800     -8.65546600      6.55048400
     H     -4.66507400     -7.32906900      3.96185500
     H     -5.47755900     -8.50403000      5.03541100
     H     -5.33127500     -8.84153000      3.29368000
     H     -2.65585100    -11.11445800      6.27758900
     H     -2.82662400     -8.89580200      3.53110100
     H     -4.21684900    -11.01928000      3.61403400
     H     -3.42467000    -12.52276900      5.33442700
