17
b3lypvdz=-272.518060398144 
     C     -3.67121000      5.23423200      2.23137800
     C     -3.88951700      4.86322600      0.96138000
     C     -4.22350800      5.75279400     -0.17180700
     C     -3.83370100      7.03805800     -0.24238300
     C     -5.03253600      5.11245300     -1.28411600
     C     -4.25773100      4.20546200     -2.21730100
     C     -2.93015300      4.06699200     -2.27930500
     H     -3.42963500      4.49611700      2.99997200
     H     -3.85487000      3.79464300      0.71559100
     H     -4.12235300      7.66907600     -1.08740600
     H     -2.26232100      4.63040000     -1.62128800
     H     -3.73844700      6.27838800      2.55122400
     H     -3.21307000      7.49586900      0.53204600
     H     -5.85462400      4.51897000     -0.83864400
     H     -5.53216500      5.89162000     -1.88829800
     H     -4.88558900      3.62363400     -2.90455000
     H     -2.46667300      3.38646700     -2.99849300
