17
b3lypvdz=-272.520316386105 
     C     -1.56466500    -24.66665500     -2.21419600
     C     -1.78706000    -23.39356900     -2.55183500
     C     -1.86403400    -25.88576200     -3.06117900
     C     -2.21106900    -25.60961500     -4.49704300
     C     -3.38824300    -25.91850900     -5.07005500
     C     -3.76272400    -25.70621800     -6.47658900
     C     -2.93539300    -25.65330900     -7.53246000
     H     -2.22771800    -23.12139500     -3.51512200
     H     -4.16836100    -26.36165900     -4.43771900
     H     -4.83945000    -25.60190900     -6.66167100
     H     -3.32324100    -25.47254000     -8.53815000
     H     -1.12637300    -24.88776300     -1.23229600
     H     -1.54127000    -22.57964000     -1.86478500
     H     -2.67090700    -26.46889900     -2.57853200
     H     -0.97227100    -26.54429900     -3.02562700
     H     -1.43589900    -25.11207400     -5.09370800
     H     -1.85502100    -25.79838600     -7.43263300
