15
b3lypvdz=-308.42282721029 
     C     -4.37094600      6.95126600      7.27851600
     C     -3.22791100      7.48988600      4.47181800
     C     -4.50001800      7.16872100      4.77586600
     C     -5.04331600      7.17880000      6.13763300
     O     -2.64699500      7.47630000      3.23617500
     C     -3.24945000      6.76233600      2.22666500
     C     -3.14256800      7.13307900      0.95062700
     H     -5.20069600      6.93434200      3.96908400
     H     -6.11600500      7.39795200      6.20534000
     H     -2.62959100      8.05499800      0.66907500
     H     -4.86972900      7.02844100      8.24762900
     H     -3.31338700      6.67075200      7.28203000
     H     -2.51383800      7.84621100      5.21736800
     H     -3.76627000      5.85251400      2.55263000
     H     -3.56558000      6.50220100      0.16844300
