16
b3lypvdz=-234.458747306982 
     C     -2.13358800    -26.33836600     -3.18652900
     C     -3.06459800    -25.83575400     -2.07326500
     C     -2.37144600    -25.67973900     -4.53220900
     C     -3.58684600    -26.09180900     -5.27229600
     C     -3.63960100    -26.32713600     -6.59047600
     C     -1.52751500    -24.75825300     -5.02684200
     H     -2.83503000    -26.34335200     -1.12257500
     H     -4.12616100    -26.02780100     -2.29959700
     H     -2.94183300    -24.75109000     -1.92177100
     H     -4.49361500    -26.25219600     -4.67598100
     H     -4.56913500    -26.63366500     -7.07626100
     H     -0.61372200    -24.48206500     -4.49378500
     H     -1.08772600    -26.15699700     -2.88766200
     H     -2.25410500    -27.43190400     -3.29253500
     H     -2.75177100    -26.22935400     -7.22134700
     H     -1.72921000    -24.25171900     -5.97247000
