15
b3lypvdz=-308.420794597788 
     C     -2.14579600      7.14587900      5.47757700
     C     -3.11729700      7.24258300      4.55930000
     C     -4.57004200      7.21139600      4.81619000
     C     -5.15783600      6.63089100      5.87189100
     O     -2.74027400      7.52878900      3.24938900
     C     -3.10442300      6.67073300      2.24436600
     C     -3.60141400      5.43539600      2.35637100
     H     -1.09934500      7.18041400      5.17159200
     H     -5.17875500      7.72829900      4.06655800
     H     -6.23690700      6.69870000      6.02830100
     H     -3.79011300      4.95767800      3.31838300
     H     -2.39272700      7.06272800      6.53668500
     H     -4.58042200      6.07194000      6.61364500
     H     -2.89805200      7.14010400      1.27891700
     H     -3.83529800      4.87937000      1.44753400
