13
b3lypvdz=-195.168001782022 
     C     -0.18167000    -24.81196200     -1.66653500
     C     -1.22581900    -24.62108800     -2.47737500
     C     -2.13000200    -25.70759100     -2.98790900
     C     -2.12515200    -25.90088800     -4.48737100
     C     -1.26557500    -25.34730400     -5.34743300
     H      0.09497700    -25.81232600     -1.31662200
     H     -0.46654300    -24.68033900     -5.01097000
     H      0.43799000    -23.98162800     -1.31812400
     H     -1.46985700    -23.60542200     -2.81451800
     H     -3.16941000    -25.48652000     -2.67238200
     H     -1.87508800    -26.66875500     -2.50242100
     H     -2.90405600    -26.57305000     -4.87001200
     H     -1.32699600    -25.55482800     -6.41912800
