17
b3lypvdz=-272.517759952324 
     C     -4.58578600      4.81678300      1.21776600
     C     -4.51205300      5.48221600      0.05163800
     C     -3.92127700      6.83606000     -0.04635000
     C     -2.94617000      7.32853900      0.73138100
     C     -5.08913100      4.89832700     -1.22249200
     C     -4.09748900      4.49035500     -2.29108200
     C     -2.76624600      4.46488600     -2.18380800
     H     -5.01614000      3.81386100      1.27135900
     H     -4.32823400      7.46968000     -0.84475400
     H     -2.58381400      8.35181500      0.60882400
     H     -2.25407800      4.76580800     -1.26601800
     H     -4.23258400      5.26128300      2.15133400
     H     -2.46786100      6.71997400      1.50424400
     H     -5.71932900      4.02497600     -0.97635300
     H     -5.78419500      5.63659800     -1.67111900
     H     -4.55921400      4.17402000     -3.23582000
     H     -2.14120100      4.14351800     -3.02105000
