17
b3lypvdz=-272.51995452602 
     C      0.18891800    -22.23409900     -1.41894900
     C      0.29624600    -23.51254400     -1.02225800
     C     -0.32749100    -24.69316400     -1.63709100
     C     -1.40643500    -24.71076500     -2.44008100
     C     -2.01614200    -25.95002800     -3.03095200
     C     -2.09500700    -25.98818400     -4.54065400
     C     -1.49824400    -25.14265600     -5.38560600
     H      0.92562100    -23.72811000     -0.15047800
     H      0.13699600    -25.65213100     -1.37440900
     H     -0.87232000    -24.31856200     -5.03135900
     H      0.68934100    -21.43465300     -0.86801200
     H     -0.38240700    -21.94219700     -2.30487400
     H     -1.91235000    -23.76760400     -2.68077400
     H     -3.04704700    -26.06679500     -2.63928400
     H     -1.47539100    -26.84696500     -2.67590400
     H     -2.70498600    -26.80450400     -4.94845500
     H     -1.61300200    -25.25273900     -6.46765900
