17
b3lypvdz=-272.518150665398 
     C     -2.60970500     -8.65578600      2.91061000
     C     -3.17495500     -7.59244300      2.33143000
     C     -3.04542400     -9.27040300      4.21031300
     C     -3.49254600    -10.72683600      4.14389100
     C     -3.68545500    -11.36874200      5.46482900
     C     -3.75997900    -12.68141700      5.73001800
     C     -3.71843000    -11.35084000      2.97519000
     H     -4.04078500     -7.09009500      2.77535100
     H     -3.75539100    -10.67771600      6.31480000
     H     -3.91837900    -13.03881000      6.75030100
     H     -3.56731400    -10.84309200      2.02074200
     H     -1.74733400     -9.12987200      2.42427400
     H     -2.78634300     -7.18466700      1.39424600
     H     -2.20254000     -9.19616800      4.92600500
     H     -3.86395900     -8.67831100      4.66046300
     H     -3.66397600    -13.44466600      4.95206800
     H     -4.08768500    -12.37803400      2.92986800
