11
b3lypvdz=-231.070888630512 
     C      0.38385000    -20.80382600      0.31416100
     C      1.02386300    -19.70509900      0.71539900
     O      0.00364700    -20.97083800     -0.99503500
     C     -0.16204600    -22.24315800     -1.47771300
     C      0.30439100    -23.38460200     -0.96290500
     H      1.32165300    -18.93595100      0.00029300
     H      0.91493300    -23.43434300     -0.06026200
     H      0.07187100    -21.60306800      0.99511700
     H      1.25075600    -19.55691600      1.77133500
     H     -0.74013400    -22.20669700     -2.40354300
     H      0.07191700    -24.31980200     -1.47394700
