16
b3lypvdz=-234.458982766134 
     C      0.06060600    -24.79420900     -1.89525700
     C     -1.17784300    -24.69110400     -2.40986400
     C     -1.81125000    -23.38103500     -2.67768400
     C     -1.58875400    -22.23687600     -2.01458700
     C     -1.96881200    -25.92268200     -2.81183900
     C     -3.36602200    -26.03068700     -2.18300300
     H      0.49783300    -25.77073600     -1.67479700
     H     -2.54447900    -23.37713300     -3.49441600
     H     -2.08838700    -21.30978200     -2.30334800
     H     -3.30674700    -26.25553400     -1.10550600
     H     -3.95413700    -26.82635100     -2.66586200
     H     -3.92861100    -25.08915600     -2.29194100
     H      0.67416300    -23.91368300     -1.69651200
     H     -0.91462000    -22.18939900     -1.15496700
     H     -1.37531400    -26.81329100     -2.54971500
     H     -2.06892400    -25.92014000     -3.91360100
