17
b3lypvdz=-309.657499333853 
     O      0.05624700     -7.49303700     -0.21909500
     C     -0.74931300     -7.87679200      0.80736300
     C     -2.61639500     -8.74614700      3.12939700
     C     -2.87989300     -7.85688000      2.15337200
     C     -2.01472600     -7.47065400      1.02909200
     C     -3.49411100     -9.08207800      4.30821300
     C     -4.86970200     -8.41305700      4.35789100
     H     -3.83934900     -7.33057900      2.17763600
     H     -2.45002900     -6.75966200      0.31366000
     H     -4.78919300     -7.31493300      4.42931100
     H     -5.43838300     -8.76373200      5.23453700
     H     -5.46548400     -8.64864100      3.45948600
     H     -0.43859000     -6.88195300     -0.78876200
     H     -0.21756700     -8.57580900      1.45923200
     H     -1.66441200     -9.29263800      3.10723100
     H     -2.93331500     -8.83328700      5.23248000
     H     -3.61978500    -10.18232200      4.34825800
