11
b3lypvdz=-231.071432931445 
     C      0.46166500    -20.74974800      0.39042800
     C      1.06011400    -19.61852600      0.76727300
     O     -0.02232400    -20.91268800     -0.87753700
     C     -0.59186700    -22.11082000     -1.21110600
     C     -1.19956000    -22.29149800     -2.38409200
     H      1.18745300    -18.78974200      0.06790200
     H     -1.26599500    -21.48120500     -3.11340700
     H      0.31083900    -21.60369200      1.06329700
     H      1.43020100    -19.51341500      1.78663600
     H     -0.50085800    -22.89851900     -0.45144500
     H     -1.63526900    -23.26024500     -2.62684800
