17
b3lypvdz=-272.517578511651 
     C     -0.30793300     -8.84837100      1.89197700
     C     -1.24280600     -9.27241400      2.75552300
     C     -2.56427200     -8.65586300      3.01625600
     C     -3.14455500     -7.76757400      2.19041900
     C     -3.25213100     -9.09981200      4.29300400
     C     -3.80098100    -10.51101200      4.28198100
     C     -3.90380000    -11.31920200      3.22280500
     H      0.63314000     -9.39041700      1.77374400
     H     -1.02593500    -10.16399000      3.35555200
     H     -4.11434000     -7.32449900      2.42852400
     H     -3.56978600    -11.01268800      2.22758300
     H     -0.43974500     -7.94890200      1.28363000
     H     -2.68049500     -7.46236600      1.24949900
     H     -2.53993900     -9.00997200      5.13686500
     H     -4.07751300     -8.40763000      4.53778900
     H     -4.15747200    -10.87266300      5.25531900
     H     -4.33023600    -12.32112500      3.32083100
