16
b3lypvdz=-234.458561865924 
     C     -0.31921000     -9.01150500      1.94252300
     C     -1.26937400     -9.21853800      2.86624000
     C     -2.59067100     -8.55262200      2.99106900
     C     -3.03546600     -7.63145100      2.11879600
     C     -3.39483400     -9.00634500      4.19790500
     C     -4.83095700     -8.49507100      4.31922300
     H      0.61046900     -9.58484200      1.96343500
     H     -1.06694000     -9.97639900      3.63369400
     H     -4.01268300     -7.15903400      2.22578000
     H     -4.87359200     -7.39835900      4.42744500
     H     -5.31857700     -8.93598200      5.20335600
     H     -5.43317200     -8.77042000      3.43680000
     H     -0.42378300     -8.27307600      1.14178600
     H     -2.43665200     -7.31274100      1.26197500
     H     -2.82281500     -8.72750200      5.10533600
     H     -3.40344400    -10.11341200      4.19903900
