10
b3lypvdz=-155.885159061069 
     C     -3.90671300    -25.85240500     -6.54545500
     C     -2.78963900    -25.49476100     -7.19926900
     C     -1.45599800    -25.25371000     -6.62536900
     C     -1.09801800    -25.33181100     -5.33308800
     H     -4.84337600    -26.00532500     -7.08655500
     H     -2.85638000    -25.35778300     -8.28500500
     H     -0.68440700    -24.97619700     -7.35256200
     H     -0.07057600    -25.12298600     -5.02583400
     H     -3.92989700    -26.01449100     -5.46342600
     H     -1.80529600    -25.59443100     -4.54133800
