15
b3lypvdz=-308.423767994298 
     O     -4.02038900    -14.82335500      3.89210200
     C     -3.01226600    -15.66572200      4.31567200
     C     -3.57534800    -16.99446800      4.61139200
     C     -2.91034400    -18.15637300      4.63786800
     C     -1.72253100    -15.30075000      4.43300800
     C     -3.85987800    -13.46548000      3.99089300
     C     -4.54066800    -12.63010100      3.20577600
     H     -4.65233900    -16.98202500      4.80936500
     H     -3.42593400    -19.08436800      4.89452000
     H     -1.36606900    -14.31727900      4.12703300
     H     -5.19579100    -13.00445000      2.41591900
     H     -1.84484400    -18.22667600      4.40069800
     H     -0.99221000    -16.00569800      4.82895900
     H     -3.18649900    -13.13639900      4.79127500
     H     -4.45949000    -11.55385400      3.36501800
