17
b3lypvdz=-272.519956642391 
     C     -2.64951100     -8.59473700      2.98966200
     C     -2.97494800     -7.54137500      2.23509800
     C     -3.39828600     -9.05129100      4.21179900
     C     -3.80914100    -10.50525800      4.23676700
     C     -4.01094700    -13.59015700      4.35979300
     C     -4.09645500    -12.79732500      3.28049400
     C     -3.72325800    -11.37577300      3.21660500
     H     -3.86241200     -6.93656400      2.44841900
     H     -4.46234200    -13.23422200      2.34282900
     H     -3.37174600    -11.01545100      2.24283400
     H     -1.75318900     -9.17489800      2.73389400
     H     -2.36338200     -7.24365100      1.37938100
     H     -2.76152500     -8.87304100      5.10238300
     H     -4.29104700     -8.41584500      4.36629000
     H     -4.22337600    -10.85337400      5.19088800
     H     -3.60520500    -13.22971100      5.30942200
     H     -4.34143000    -14.63112800      4.32114300
