5
b3lypvdz=-40.480455136972 
     C     -5.03473900      5.22412200     -1.46860500
     H     -4.51921900      5.59119200     -0.56856400
     H     -6.06972900      4.95198200     -1.21166300
     H     -5.04141800      6.01279900     -2.23536400
     H     -4.50979500      4.33850500     -1.85680300
