13
b3lypvdz=-195.167909245441 
     C     -2.60187200     -8.72570200      2.94191800
     C     -2.92969900     -7.63182500      2.24955400
     C     -3.22547100     -9.14009400      4.24607700
     C     -3.80735300    -10.53356700      4.28163000
     C     -3.98939600    -11.34188500      3.23335700
     H     -3.72152100     -6.95545400      2.58835300
     H     -3.71565800    -11.03952100      2.21863700
     H     -1.80808200     -9.38283500      2.56337600
     H     -2.42385800     -7.36684700      1.31746200
     H     -2.46351800     -9.06477900      5.04769500
     H     -4.01073700     -8.41494600      4.53212400
     H     -4.10922300    -10.88303300      5.27688000
     H     -4.42601100    -12.33631200      3.35543800
