13
b3lypvdz=-704.333371918439 
     C     -5.34258900      9.27407200      8.81880200
     C     -6.54622700      9.84061200      8.84416400
     S     -5.22135400      7.49706500      8.55387000
     O     -4.35017900      6.95455600      9.62846500
     O     -6.59989700      6.98410100      8.31635800
     C     -4.30670300      7.36711700      7.00484700
     C     -4.90133600      6.85226700      5.93122800
     H     -7.43643100      9.23373900      8.65928300
     H     -5.94798300      6.54021400      5.98279300
     H     -4.38982600      9.76908500      9.02203700
     H     -6.66893000     10.90373000      9.06711400
     H     -3.26360100      7.68675300      7.06882400
     H     -4.35534200      6.71828900      4.99351600
