15
b3lypvdz=-308.421358923836 
     O     -2.44736400      0.40888600     -3.58217500
     C     -1.24913500     -0.17619700     -3.19824800
     C     -0.49210300     -0.73730700     -4.15361500
     C      0.24259400     -0.17465300     -1.19497200
     C     -0.97558200     -0.21960800     -1.75107300
     C     -4.08312700      2.03563400     -3.08690400
     C     -2.84475500      1.55829400     -2.94693500
     H     -0.77630900     -0.63870700     -5.20251700
     H      0.37516800     -0.26144500     -0.11387100
     H     -1.86373100     -0.29509000     -1.11210600
     H     -4.82096400      1.50989200     -3.69636400
     H      0.38520400     -1.32485300     -3.88602000
     H      1.14230300     -0.05150000     -1.80369100
     H     -4.36017000      2.97109300     -2.60150300
     H     -2.07522900      2.05916200     -2.34960500
