19
b3lypvdz=-273.743825258604 
     C      0.00537000    -24.79596300     -1.73260000
     C     -1.15241400    -24.69651100     -2.40926800
     C     -1.72430700    -23.38092400     -2.78310500
     C     -1.61710900    -22.23251800     -2.09888500
     C     -1.95817100    -25.90604300     -2.87629800
     C     -3.27758000    -26.02109300     -2.08626200
     C     -1.19168200    -27.23329700     -2.85118800
     H      0.42977300    -25.75953700     -1.44710000
     H     -2.30172300    -23.37272700     -3.71691200
     H     -2.05748100    -21.30855900     -2.48253800
     H     -3.07569900    -26.27546700     -1.03101300
     H     -3.91994600    -26.81055400     -2.51130900
     H     -3.84456900    -25.07637400     -2.10345300
     H     -0.94313900    -27.54216400     -1.82162400
     H     -0.25222000    -27.17213700     -3.42222700
     H     -1.80633700    -28.03386200     -3.29415200
     H      0.57233700    -23.90599300     -1.44997000
     H     -1.09636300    -22.17702800     -1.13839300
     H     -2.23224000    -25.70014800     -3.93050000
