11
b3lypvdz=-231.071526696285 
     O     -2.34717400      0.55443900     -3.60897100
     C     -0.99556500      0.39895900     -3.47620300
     C     -0.32739200     -0.54656300     -4.13919000
     C     -4.29692700      1.65612100     -2.86484100
     C     -2.97375300      1.49022500     -2.83379600
     H     -0.84160600     -1.23892800     -4.80826200
     H     -4.92409900      1.03822000     -3.51072300
     H     -0.50903300      1.11077700     -2.79718200
     H      0.75146800     -0.63513900     -4.01010000
     H     -4.76386900      2.41591000     -2.23875600
     H     -2.30695100      2.08937900     -2.20117600
