9
b3lypvdz=-117.824409846536 
     C     -2.33670900    -25.74773500     -4.48562200
     C     -3.53135400    -25.96034700     -5.04690900
     C     -2.02564900    -25.91532000     -3.02416600
     H     -4.39330500    -26.28286100     -4.45324600
     H     -1.50420000    -25.42024600     -5.12294300
     H     -3.68945500    -25.81575900     -6.11996400
     H     -1.66841700    -24.96589700     -2.58450100
     H     -2.91004800    -26.24672800     -2.45622400
     H     -1.22246500    -26.65900800     -2.87342600
