16
b3lypvdz=-234.459378223742 
     C      0.07622300    -24.76387500     -1.81243200
     C     -1.09741000    -24.65399800     -2.45813900
     C     -1.69325800    -23.33705200     -2.78363700
     C     -1.61378900    -22.21962400     -2.04721200
     C     -1.90513500    -25.84711900     -2.93519100
     C     -1.28154600    -27.22892500     -2.74579000
     H      0.50839700    -25.73297200     -1.55756700
     H     -2.27457300    -23.30197100     -3.71425200
     H     -2.08018400    -21.29135200     -2.38695600
     H     -1.10713600    -27.46058000     -1.68226500
     H     -0.31525000    -27.30874300     -3.26997800
     H     -1.94828300    -28.00586100     -3.15229800
     H      0.64851100    -23.87899300     -1.52581500
     H     -1.09390000    -22.19686000     -1.08515500
     H     -2.89098600    -25.81366000     -2.43344100
     H     -2.12958100    -25.69141400     -4.00817300
