17
b3lypvdz=-272.514533738048 
     C     -0.31903200    -22.12559100     -1.02096000
     C     -1.32849600    -24.68444800     -2.43668800
     C     -1.47754400    -23.41601400     -2.85928300
     C     -0.94381600    -22.21035500     -2.20568000
     C     -1.92391200    -25.92936700     -3.05058900
     C     -2.31547100    -25.92187900     -4.51362400
     C     -1.65771300    -25.33162000     -5.51674700
     H     -2.03732000    -23.24072500     -3.78142800
     H     -1.09284900    -21.28502800     -2.77415700
     H     -0.75506700    -24.73769000     -5.35108600
     H      0.04852400    -21.17117900     -0.63923900
     H     -0.15073500    -23.00132800     -0.38767400
     H     -0.75947800    -24.86215200     -1.51676800
     H     -2.81165700    -26.21645700     -2.45400100
     H     -1.21820900    -26.76592600     -2.88043100
     H     -3.20798500    -26.50988600     -4.75692700
     H     -2.00553800    -25.43085400     -6.54861800
