17
b3lypvdz=-272.518078146086 
     C     -4.56993500      4.55637400      0.84272500
     C     -5.00306300      5.36808800     -0.12674500
     C     -4.56954500      5.35639300     -1.57795200
     C     -3.81602900      4.11894800     -2.02950800
     C     -4.61477500      2.87661100     -2.14531100
     C     -4.38885100      1.86077900     -2.99144900
     C     -2.50065600      4.16644400     -2.30515000
     H     -3.83240000      3.77153300      0.65100700
     H     -5.48776900      2.82001000     -1.48427800
     H     -5.03699100      0.98083800     -2.99751800
     H     -1.94282500      5.10466200     -2.24185700
     H     -4.94270500      4.65661500      1.86537200
     H     -5.73712400      6.14395700      0.12690700
     H     -5.47206900      5.48558200     -2.20515800
     H     -3.95129000      6.25223000     -1.76927700
     H     -3.56069500      1.87266300     -3.70676000
     H     -1.94247800      3.27327200     -2.59644700
