17
b3lypvdz=-309.658997413581 
     O     -2.10594700      0.86186200     -4.11462000
     C     -4.75680800      5.47054900     -1.50756000
     C     -5.51014200      6.25571800     -2.59378800
     C     -4.14038600      4.19822100     -2.01770600
     C     -2.64755000      2.00731000     -3.62073500
     C     -2.18315800      2.72878500     -2.58272600
     C     -2.82059200      3.93331700     -2.04483000
     H     -6.01089900      7.14113100     -2.16827100
     H     -6.28393900      5.63292500     -3.07520900
     H     -4.82092700      6.59660500     -3.38424700
     H     -1.24194200      2.41060700     -2.11433100
     H     -2.13753500      4.67473700     -1.60951700
     H     -1.34647800      0.61455700     -3.56251500
     H     -3.97377100      6.10801000     -1.06003700
     H     -5.46743800      5.22817700     -0.69441000
     H     -4.83865600      3.43896000     -2.39409700
     H     -3.53163200      2.29873100     -4.19410200
