19
b3lypvdz=-273.742679249936 
     C     -5.06405700      5.15199500     -1.56634700
     C     -6.46775800      4.91651500     -0.99681100
     C     -5.09219500      6.26258400     -2.63546700
     C     -4.37493800      3.90499300     -2.11786600
     C     -5.04409100      2.79218500     -2.46692600
     C     -2.04127200      3.14563800     -2.78370900
     C     -2.90005500      4.02427900     -2.24494600
     H     -6.85552900      5.84668200     -0.54862400
     H     -6.46800000      4.13840000     -0.21677000
     H     -7.17993300      4.61241600     -1.78218800
     H     -5.50236500      7.19756900     -2.21684900
     H     -5.72830400      5.95938600     -3.48461100
     H     -4.08889900      6.48348300     -3.03483500
     H     -6.12712300      2.70800300     -2.36306700
     H     -0.96826100      3.35472000     -2.79642500
     H     -2.47589600      4.94674300     -1.82915300
     H     -4.42524800      5.51518900     -0.73659300
     H     -4.52966500      1.91594700     -2.86861100
     H     -2.36461100      2.20037300     -3.22960200
