15
b3lypvdz=-308.42212798363 
     C      0.15882700    -19.65368000      3.08905800
     C      0.20778600    -20.76634700      0.18071000
     C      0.77323100    -19.63426000      0.63150100
     C      0.75953200    -19.12690000      2.00697500
     O      0.22534500    -21.05819500     -1.15929900
     C      0.10604100    -22.36136200     -1.56604200
     C      0.26978900    -23.47251500     -0.84175200
     H      1.29316800    -19.01830500     -0.10885500
     H      1.31662300    -18.19382700      2.14450300
     H      0.56033200    -23.47052000      0.20996400
     H      0.24009600    -19.15940200      4.06014200
     H     -0.42718000    -20.57687200      3.05541800
     H     -0.33575800    -21.48033800      0.80819400
     H     -0.14481800    -22.38400700     -2.62895800
     H      0.12668700    -24.43727000     -1.33036000
