17
b3lypvdz=-272.520276658373 
     C     -1.27554300     -9.11649900      2.87520000
     C     -2.38245200     -8.50699100      3.31024300
     C     -3.47620600     -9.12948200      4.15061300
     C     -3.48321400    -10.62993000      4.20285500
     C     -3.37897200    -11.36418100      5.32373700
     C     -3.45118000    -12.83114800      5.39498600
     C     -4.16734800    -13.62303900      4.58139000
     H     -1.06258100    -10.16413700      3.10659200
     H     -3.20944500    -10.84419700      6.27572100
     H     -2.88040900    -13.29880400      6.20716600
     H     -0.53304800     -8.57416200      2.28352800
     H     -2.53881900     -7.45158500      3.05392600
     H     -3.42512400     -8.71708400      5.17649100
     H     -4.44773600     -8.78163800      3.74593800
     H     -3.58263000    -11.14189000      3.23738300
     H     -4.80097700    -13.21074900      3.79022500
     H     -4.14981500    -14.71058400      4.69260600
