15
b3lypvdz=-308.422159384001 
     C     -0.76286500    -20.90362200      1.32481400
     C      0.23330100    -20.65415500      0.47060100
     O      0.75034400    -21.50815500     -0.45707600
     C     -0.02466800    -22.52329300     -0.95808700
     C      0.53258400    -23.68099600     -1.34065300
     C     -0.15699100    -24.79972500     -2.00180000
     C     -1.36890000    -24.81053800     -2.58427600
     H     -1.27428500    -21.86851900      1.37798000
     H      1.59747600    -23.82110900     -1.13065900
     H      0.41479800    -25.73516500     -2.01575500
     H     -1.09250300    -20.13110100      2.02171900
     H      0.76998400    -19.70119900      0.44378800
     H     -1.08775100    -22.26452600     -1.05505000
     H     -2.00094900    -23.91905500     -2.65032300
     H     -1.76287600    -25.73024300     -3.02222400
