19
b3lypvdz=-273.743893779933 
     C     -4.95809800      5.29079900     -1.65131900
     C     -6.15094700      4.79356000     -0.81470900
     C     -5.43858800      6.16932000     -2.82048800
     C     -4.08822700      4.12888300     -2.12187500
     C     -4.73725400      3.10734500     -2.97286400
     C     -4.48909400      1.78942200     -2.95552600
     C     -2.78761500      4.05214700     -1.78788500
     H     -6.74139400      5.64300900     -0.43264100
     H     -5.81126700      4.19541500      0.04587100
     H     -6.82332200      4.16000400     -1.41805600
     H     -6.02201200      7.02368100     -2.43861000
     H     -6.09266300      5.61156900     -3.51173800
     H     -4.59084900      6.56687500     -3.40163200
     H     -5.50853200      3.46912800     -3.66446300
     H     -5.01465900      1.11260000     -3.63409300
     H     -2.32347300      4.80231800     -1.14104900
     H     -4.32510000      5.92144100     -1.00291600
     H     -3.77472000      1.34222400     -2.25802500
     H     -2.14378700      3.25155800     -2.16088100
