15
b3lypvdz=-308.420770849748 
     O     -2.49511300      0.52900000     -3.55875900
     C     -1.30473000     -0.05105800     -3.12609300
     C     -0.55176800     -0.69111400     -4.03168900
     C      0.12318500     -0.12757600     -1.07282400
     C     -1.07157300     -0.02304700     -1.67026800
     C     -2.71932400      1.86294100     -3.33966700
     C     -1.84159600      2.80018200     -2.96987200
     H     -0.81569800     -0.65549600     -5.08967100
     H      0.21024400     -0.15414300      0.01584500
     H     -1.97711600      0.07988600     -1.06239400
     H     -0.78958900      2.58785500     -2.77570900
     H      0.30921600     -1.28152000     -3.71794600
     H      1.05064900     -0.18510800     -1.64951900
     H     -3.76769000      2.09127100     -3.54778900
     H     -2.19879600      3.82432700     -2.85024400
