15
b3lypvdz=-308.421386307745 
     O     -4.14144100    -14.84839900      3.70071500
     C     -3.29772800    -15.88046000      4.08310300
     C     -3.85818300    -17.03164200      4.48698300
     C     -0.88734100    -16.19057800      4.66541200
     C     -1.85203600    -15.64623300      3.91084000
     C     -3.77508800    -13.56093000      4.00413000
     C     -4.40738000    -12.50984400      3.47893700
     H     -4.94044000    -17.10895700      4.59884600
     H      0.16746300    -16.00770400      4.44497300
     H     -1.58148500    -14.97001500      3.09098400
     H     -5.22865000    -12.63807900      2.77049800
     H     -3.23971800    -17.90808000      4.67462400
     H     -1.12358400    -16.82961400      5.52136300
     H     -2.95238000    -13.46044700      4.72067100
     H     -4.10790900    -11.50491800      3.77691900
