12
b3lypvdz=-157.109474674578 
     C     -1.30587300    -27.35199700     -2.65869800
     C     -2.01966800    -25.87971900     -4.59545800
     C     -1.43727000    -25.00962700     -5.42549700
     C     -1.77757000    -25.96148200     -3.11322700
     H     -1.18663400    -27.39277800     -1.56366200
     H     -0.33852900    -27.61250800     -3.11842900
     H     -2.03281300    -28.13090500     -2.94488300
     H     -0.72081000    -24.26386800     -5.06412500
     H     -2.73108200    -26.61144600     -5.00368400
     H     -1.66010000    -25.00032200     -6.49638200
     H     -1.03850900    -25.19623000     -2.81935400
     H     -2.71384300    -25.71201800     -2.57800200
