16
b3lypvdz=-234.45301271915 
     C     -2.67673100     -8.59302000      3.03173500
     C     -3.07479300     -7.66492700      2.15688900
     C     -3.42743000     -9.00139200      4.27519600
     C     -2.59916000     -8.69130600      5.54318100
     C     -3.84021200    -10.46105500      4.28216000
     C     -3.72204700    -11.33444400      3.27864800
     H     -4.02488100     -7.13294600      2.27527500
     H     -2.33101000     -7.62420800      5.59050900
     H     -1.66779300     -9.28133100      5.55940400
     H     -3.17218600     -8.94389000      6.45160300
     H     -3.30245300    -11.04654200      2.31082800
     H     -1.71815400     -9.10431400      2.87005100
     H     -2.46765500     -7.40003000      1.28695700
     H     -4.35363000     -8.39733600      4.33044200
     H     -4.27573600    -10.80205800      5.23107400
     H     -4.05573000    -12.36920100      3.39334800
