15
b3lypvdz=-308.423385706729 
     O     -2.27480400      0.58114000     -3.67904200
     C     -0.96988200      0.27678900     -3.40704600
     C     -0.36501000     -0.76783100     -3.97502500
     C     -4.41260700      4.07395600     -1.94046600
     C     -4.90784500      2.92391000     -2.43180000
     C     -4.17968600      1.84959600     -3.10929200
     C     -2.86433400      1.60461600     -2.99550700
     H     -0.90150200     -1.41875800     -4.66856700
     H     -5.98507700      2.74592200     -2.32653800
     H     -4.76524700      1.16704800     -3.73386700
     H     -0.47399400      0.94838700     -2.69445200
     H      0.67377700     -0.99318000     -3.73519700
     H     -5.06248000      4.78492800     -1.42499700
     H     -3.36008700      4.35576800     -2.04465800
     H     -2.19162100      2.17930800     -2.34684700
