11
b3lypvdz=-119.049816911597 
     C     -3.32674900    -26.10926100     -2.16593600
     C     -1.11280900    -27.18751800     -2.85317600
     C     -2.02483000    -25.96017200     -2.96012600
     H     -3.12254400    -26.25107500     -1.08982500
     H     -3.90619200    -26.98207500     -2.51509300
     H     -3.96828600    -25.21808800     -2.27369800
     H     -0.81671000    -27.37514300     -1.80630500
     H     -0.19094200    -27.05559500     -3.44333700
     H     -1.62186300    -28.09415200     -3.22484300
     H     -1.47874100    -25.06724000     -2.60488800
     H     -2.26643500    -25.77528100     -4.02307300
