15
b3lypvdz=-308.418591389982 
     C     -0.93294900    -20.73908900      2.73906600
     C     -0.63002500    -21.27743900      1.54998200
     C      0.40909700    -20.79074600      0.62446900
     C      0.86659700    -19.53535400      0.52276600
     O      0.98807300    -21.77733500     -0.17360100
     C      0.16587400    -22.39728000     -1.08181000
     C      0.44934300    -23.60358500     -1.57751600
     H     -1.72272500    -21.16584000      3.36144300
     H     -1.15779400    -22.18011000      1.22317800
     H      1.66070500    -19.29655800     -0.18551400
     H      1.32831800    -24.15551400     -1.23866700
     H     -0.39994600    -19.86929500      3.13281800
     H      0.46451400    -18.74172100      1.15240100
     H     -0.70369400    -21.80835600     -1.39737500
     H     -0.19008700    -24.03807800     -2.34594200
