15
b3lypvdz=-308.422464815867 
     C      0.76262100     -6.05326800     -1.56228200
     C      0.48308900     -6.46768400     -0.32717500
     O      0.30132100     -7.80109600     -0.03787500
     C     -0.70806700     -8.14141900      0.82007400
     C     -2.69367100     -8.57927500      3.14328900
     C     -2.83374000     -7.79255700      2.06299000
     C     -1.78442700     -7.39019300      1.11996300
     H      0.78830400     -6.75638700     -2.39782800
     H     -3.82920600     -7.38660700      1.84181200
     H     -1.92822500     -6.43954300      0.59739500
     H      0.99205200     -5.00345300     -1.74804200
     H      0.42200100     -5.80378300      0.54421900
     H     -0.55378700     -9.14949200      1.21195000
     H     -1.72091800     -8.97281900      3.45469600
     H     -3.55694600     -8.85092300      3.75611400
