17
b3lypvdz=-272.517960865261 
     C     -1.84828200    -24.71796800     -2.28504000
     C     -1.92391100    -23.42713300     -2.62258300
     C     -1.72501400    -25.89727400     -3.22686900
     C     -2.03446200    -25.61180500     -4.68470900
     C     -3.46908400    -25.54145700     -5.04199500
     C     -4.00827300    -25.99090400     -6.18463400
     C     -1.06019200    -25.42730200     -5.59177500
     H     -1.91860000    -23.10069000     -3.66615000
     H     -4.12864000    -25.11638200     -4.27539100
     H     -5.07965800    -25.90037700     -6.38084600
     H     -0.00600000    -25.51601600     -5.31344100
     H     -1.84994000    -24.98626200     -1.22031600
     H     -1.98683200    -22.65061700     -1.85585200
     H     -2.38986900    -26.70319900     -2.86516500
     H     -0.70009600    -26.30270800     -3.14123400
     H     -3.39891200    -26.47210300     -6.95486700
     H     -1.28913700    -25.17010300     -6.62883200
