15
b3lypvdz=-308.423270944433 
     C     -2.70124400      7.68262000      7.01638400
     C     -2.44266900      7.14245000      5.81861600
     C     -3.40530500      6.87565700      4.73492700
     C     -4.73161500      7.10278200      4.75750500
     O     -2.73145800      6.30539200      3.67056800
     C     -3.35532700      6.21380800      2.45226800
     C     -3.08918700      5.20757300      1.61934200
     H     -1.90334500      7.82244600      7.74865200
     H     -1.42258600      6.83237100      5.57027600
     H     -5.39036300      6.80939600      3.94152500
     H     -2.42013500      4.39720700      1.91787800
     H     -3.70409100      8.00402400      7.31062500
     H     -5.18470300      7.57013900      5.63150900
     H     -4.02796400      7.04488500      2.20799500
     H     -3.53430900      5.18955100      0.62413000
