12
b3lypvdz=-157.109359948475 
     C     -3.35437500    -26.14640700     -2.19691400
     C     -0.12012900    -24.68469400     -1.72852000
     C     -1.28633500    -24.68057300     -2.37988600
     C     -2.00402700    -25.89961700     -2.89356400
     H     -3.21108900    -26.35486100     -1.12283300
     H     -3.87989500    -27.00480800     -2.64733200
     H     -4.01746800    -25.26720100     -2.28350400
     H      0.42140500    -25.61775400     -1.53438700
     H      0.34203500    -23.76120400     -1.36796800
     H     -1.79173800    -23.71960800     -2.55736800
     H     -1.35186100    -26.78336500     -2.77542800
     H     -2.18972400    -25.77880700     -3.97889600
