15
b3lypvdz=-308.421712945141 
     O     -4.26090300    -14.70566500      3.90042900
     C     -3.32097600    -15.66505200      4.14828600
     C     -1.21852500    -17.84628600      4.73784000
     C     -0.99941800    -16.55683900      4.42956900
     C     -1.98373800    -15.50738200      4.14576500
     C     -3.90540300    -13.38389800      4.01252700
     C     -4.47033300    -12.44328700      3.25624500
     H      0.04198800    -16.21966400      4.37286100
     H     -1.57309800    -14.52591200      3.89516000
     H     -5.19141900    -12.70355600      2.47828900
     H     -3.81104200    -16.62253000      4.33596400
     H     -2.22148300    -18.27425200      4.82274000
     H     -0.38205100    -18.52346400      4.92235000
     H     -3.17003400    -13.17552600      4.79817900
     H     -4.22086400    -11.39518800      3.42649700
