16
b3lypvdz=-234.458925366112 
     C     -1.16354200     -9.50631500      2.85826100
     C     -2.26260700     -8.77832700      3.12476500
     C     -2.60451200     -7.55220100      2.37228100
     C     -2.32671900     -7.31678600      1.08121100
     C     -3.21118400     -9.15901200      4.24945900
     C     -2.95489000     -8.37926800      5.54964500
     H     -0.94665500    -10.42864200      3.40506500
     H     -3.17189500     -6.79400200      2.92731100
     H     -2.62016300     -6.37959800      0.60144800
     H     -3.05838900     -7.28983700      5.40676200
     H     -1.93564600     -8.57410200      5.92239100
     H     -3.66908400     -8.68079400      6.33392800
     H     -0.44155800     -9.19870900      2.09744700
     H     -1.81428600     -8.05682100      0.45883400
     H     -4.25435900     -8.99702700      3.92223100
     H     -3.11051100    -10.23775700      4.45796100
