17
b3lypvdz=-309.655942594563 
     O      0.37867800    -21.06223500     -0.58252300
     C     -0.01563800    -22.19329700     -1.24064400
     C     -1.62239100    -24.61041200     -2.33788900
     C     -1.59638900    -23.34393700     -2.79552500
     C     -1.02072600    -22.17287600     -2.13395300
     C     -2.24689900    -25.77210500     -3.05767700
     C     -3.36191000    -26.44340900     -2.24024200
     H     -2.08456400    -23.14043400     -3.75740200
     H     -1.44194000    -21.19454800     -2.38974100
     H     -2.96666100    -26.86629100     -1.30059600
     H     -3.83458400    -27.26432300     -2.80417800
     H     -4.14567800    -25.71585500     -1.97302700
     H      1.23370900    -21.22836700     -0.16220300
     H      0.51873400    -23.11799000     -0.99177300
     H     -1.19600700    -24.82850000     -1.34977100
     H     -1.47398600    -26.53018100     -3.28854300
     H     -2.64534800    -25.43034300     -4.02881300
