19
b3lypvdz=-273.746882444845 
     C     -0.23428100    -22.09055400     -1.20981200
     C     -1.56608400    -24.68591500     -2.27646700
     C     -1.56794100    -23.47039200     -2.85133200
     C     -0.92909600    -22.24441800     -2.34899400
     C     -2.22517000    -25.91285500     -2.85226000
     C     -3.34931400    -26.42713500     -1.93213900
     C     -1.18115500    -27.01575800     -3.11172400
     H     -2.09677700    -23.36299800     -3.80584000
     H     -1.04732300    -21.37047500     -3.00069900
     H     -2.95449500    -26.71018300     -0.94070500
     H     -3.82866300    -27.32004200     -2.36777900
     H     -4.12436400    -25.65871200     -1.78185700
     H     -0.70703800    -27.34085900     -2.16836900
     H     -0.38295700    -26.66202600     -3.78347800
     H     -1.64794700    -27.90332500     -3.57116000
     H      0.20397100    -21.12686000     -0.94147500
     H     -0.07533800    -22.91450500     -0.50780300
     H     -1.04610400    -24.83158200     -1.31980100
     H     -2.68232500    -25.62970600     -3.81780300
