17
b3lypvdz=-272.519560551454 
     C     -0.29089900    -22.13702800     -1.15207700
     C     -1.35704600    -24.71732000     -2.48809700
     C     -1.58268200    -23.45045700     -2.87983700
     C     -1.06557600    -22.22834300     -2.24525400
     C     -1.90876000    -25.95689500     -3.14939600
     C     -2.48083500    -25.75615300     -4.52692200
     C     -3.74690600    -26.00128500     -4.87637600
     H     -2.21573700    -23.28961800     -3.75872600
     H     -1.36732800    -21.29767200     -2.73976900
     H     -4.48001800    -26.36780500     -4.15065400
     H      0.03742100    -21.16783800     -0.77018400
     H      0.04856000    -23.01924100     -0.60155400
     H     -0.73218800    -24.90323200     -1.60626000
     H     -2.67247700    -26.41404700     -2.49112200
     H     -1.09282900    -26.70539700     -3.20102400
     H     -1.78032800    -25.38162500     -5.28408700
     H     -4.09997300    -25.84574200     -5.89946100
