12
b3lypvdz=-157.109361547681 
     C     -2.89734600     -8.38299500      5.69537300
     C     -1.39010400     -9.44021700      2.61966300
     C     -2.28770600     -8.67160600      3.24417700
     C     -3.17643500     -9.11755300      4.37348000
     H     -3.02987500     -7.29195200      5.59009500
     H     -1.86344400     -8.56583700      6.03301700
     H     -3.58229800     -8.72802900      6.48730600
     H     -1.24237000    -10.48946300      2.90104400
     H     -0.76929000     -9.05528100      1.80544400
     H     -2.40010300     -7.62458400      2.92950400
     H     -4.23192900     -8.94203900      4.08766500
     H     -3.06160100    -10.20564300      4.52453200
