13
b3lypvdz=-704.333442076356 
     C      0.77055100     -1.42212800     -2.03642800
     C      0.20418300     -0.37411200     -1.44251000
     S      2.12210600     -2.29637000     -1.22657200
     O      3.21411500     -2.41281100     -2.22769800
     O      2.34078800     -1.68156400      0.11252200
     C      1.44717300     -3.94914400     -0.97085800
     C      1.20534100     -4.37939400      0.26558800
     H      0.52141200     -0.06864400     -0.44199800
     H      1.38661800     -3.72407300      1.12200900
     H      0.53910900     -1.78720600     -3.04053300
     H     -0.56881100      0.20857000     -1.95116800
     H      1.31834500     -4.53319600     -1.88606500
     H      0.83197000     -5.39072800      0.44841100
