16
b3lypvdz=-234.44789413269 
     C     -1.40341300    -24.61695700     -2.33980900
     C     -1.55044000    -23.35122900     -2.74361600
     C     -2.01825200    -25.86281200     -2.95340900
     C     -3.33993600    -26.19275700     -2.22316200
     C     -2.22322800    -25.86912000     -4.45777900
     C     -1.51697700    -25.21748100     -5.38586000
     H     -2.10920000    -23.08831900     -3.64520200
     H     -3.18452500    -26.27565100     -1.13557700
     H     -3.75617100    -27.14757700     -2.58538100
     H     -4.08519900    -25.40012200     -2.40071500
     H     -0.70355500    -24.53493900     -5.12718500
     H     -0.84080600    -24.80510400     -1.41697500
     H     -1.10710000    -22.52896900     -2.17603100
     H     -1.32392100    -26.69798800     -2.73031700
     H     -3.02136800    -26.54356200     -4.79461000
     H     -1.73650800    -25.35531300     -6.44857200
