13
b3lypvdz=-704.329847623741 
     C     -1.32255300      0.30337100     -3.17221500
     C      0.91908100     -1.53537500     -2.11069200
     C      0.25360100     -0.58674900     -1.43297200
     C     -0.83692700      0.26394300     -1.92175200
     S      2.26329800     -2.39212000     -1.29843900
     O      3.45384700     -2.36487000     -2.18082400
     O      2.32789400     -1.96158300      0.12055400
     H      0.56099000     -0.43526100     -0.39247800
     H     -1.27911600      0.92172400     -1.16692600
     H     -2.14766300      0.96997300     -3.43245100
     H     -0.92005700     -0.31749400     -3.97739100
     H      0.76435800     -1.83294300     -3.15118900
     H      1.76924600     -3.69211600     -1.31352200
