15
b3lypvdz=-308.420688837868 
     C      0.38715500     -6.39024900     -0.22415400
     C      0.35492900     -5.44262500      0.71755700
     O     -0.02863400     -7.69380600     -0.13354300
     C     -0.79529100     -8.09436700      0.95781100
     C     -0.33751000     -9.10168500      1.71445900
     C     -2.86290200     -7.39268500      2.18317800
     C     -2.11466200     -7.44585200      1.07337600
     H     -0.04052800     -5.61467400      1.71940000
     H      0.65739000     -9.51342700      1.54188900
     H     -3.85459400     -6.93565100      2.16974500
     H     -2.48386600     -6.98789000      0.14938600
     H      0.80182000     -6.21164200     -1.21960500
     H      0.74216500     -4.45206600      0.47347000
     H     -0.96600300     -9.54944000      2.48426400
     H     -2.50996900     -7.79984100      3.13496700
