16
b3lypvdz=-234.459869531531 
     C     -3.48698200     -9.13660600      4.39180100
     C     -4.90175600     -8.56992600      4.20274200
     C     -3.45537800    -10.65197700      4.43657100
     C     -3.09378100    -11.32549200      5.54268600
     C     -4.50153700    -12.49354000      3.07804900
     C     -3.83248500    -11.33734200      3.18277000
     H     -4.88144800     -7.47606500      4.07225700
     H     -5.53828800     -8.80057800      5.07240000
     H     -5.38713600     -9.00814400      3.31608600
     H     -2.83110200    -10.79877900      6.46348600
     H     -4.72712700    -12.93450300      2.10408500
     H     -3.54278100    -10.81158500      2.26278800
     H     -2.84529400     -8.79672700      3.55753700
     H     -3.03769200     -8.73181000      5.31296800
     H     -3.03028600    -12.41586200      5.55296600
     H     -4.85982700    -13.03146400      3.95950800
