19
b3lypvdz=-273.745702477846 
     C     -0.74856600     -7.84929200      0.77016500
     C     -2.56225200     -8.61305800      3.17660100
     C     -2.86362900     -7.77927200      2.16484300
     C     -1.99723300     -7.42416300      1.02601400
     C     -3.44335900     -8.98969500      4.34492700
     C     -2.76616100     -8.61652800      5.68031900
     C     -4.87124600     -8.43828000      4.27978200
     H     -3.84994200     -7.30566900      2.15248600
     H     -2.45047000     -6.72972000      0.30822100
     H     -2.67858100     -7.52097900      5.78108900
     H     -1.75323700     -9.04558500      5.75532800
     H     -3.35357700     -8.99487600      6.53391900
     H     -4.88497100     -7.33671600      4.35803700
     H     -5.47173600     -8.83603800      5.11401600
     H     -5.37385300     -8.71973200      3.34044600
     H     -0.21423700     -7.50597400     -0.11871600
     H     -0.21496500     -8.54407500      1.42634300
     H     -1.57349800     -9.09135800      3.18763700
     H     -3.50788800    -10.09739100      4.32904400
