17
b3lypvdz=-272.520072358107 
     C     -4.33922300      4.62474500      0.93500700
     C     -4.83267900      5.52218800      0.07644800
     C     -4.62799900      5.53076000     -1.42374400
     C     -4.08442800      4.25781100     -2.00827900
     C     -2.59874200      1.66546300     -2.86663600
     C     -2.38243500      2.92255300     -3.28555800
     C     -2.93609300      4.15302000     -2.70010200
     H     -3.71637000      3.78952700      0.60201400
     H     -1.71333300      3.07449200     -4.14135800
     H     -2.35486200      5.06567900     -2.88405200
     H     -4.54255400      4.70330200      2.00673000
     H     -5.44494900      6.34612100      0.46513100
     H     -5.60634500      5.75805600     -1.89207900
     H     -3.97223100      6.37926000     -1.69459200
     H     -4.70104000      3.36250500     -1.86119600
     H     -3.21239100      1.44325700     -1.98845900
     H     -2.15022600      0.81616000     -3.38687400
