15
b3lypvdz=-308.421284485573 
     C      0.37435500    -20.94360800      0.29578400
     C      1.04551100    -19.91707400      0.82192700
     O     -0.01121200    -20.93808200     -1.02191600
     C     -0.39080800    -22.12992200     -1.61689500
     C      0.33545400    -23.34482200     -1.20108700
     C     -0.19940400    -24.57009300     -1.10539900
     C     -1.31047200    -22.07613900     -2.59390000
     H      1.33796800    -19.06345200      0.20719500
     H      1.39477200    -23.19988200     -0.95595900
     H      0.42021600    -25.43036800     -0.84131500
     H     -1.80105500    -21.13274000     -2.83827900
     H      0.06413800    -21.81907500      0.87547900
     H      1.30589500    -19.92198800      1.88028300
     H     -1.26178900    -24.75123800     -1.28945700
     H     -1.54286900    -22.96251700     -3.18215900
