17
b3lypvdz=-272.519919450074 
     C     -1.25160000     -8.51494400      2.76069400
     C     -2.53950800     -8.76369800      3.01387400
     C     -3.08919800     -9.25147800      4.32519200
     C     -3.73922700    -10.61639700      4.29230500
     C     -4.45150200    -13.63684200      4.37743900
     C     -4.24822000    -12.85624000      3.30508700
     C     -3.62936400    -11.52354400      3.30539200
     H     -0.48008200     -8.66261000      3.52401700
     H     -4.54780800    -13.24030200      2.32140000
     H     -3.05880200    -11.25666800      2.40842700
     H     -0.91861600     -8.14837100      1.78625900
     H     -3.28005800     -8.60188700      2.22037100
     H     -2.28687500     -9.24904800      5.08860100
     H     -3.84213300     -8.52841900      4.69456400
     H     -4.35618500    -10.86532000      5.16402500
     H     -4.11829800    -13.33512200      5.37478300
     H     -4.94242400    -14.60861000      4.28477200
