12
b3lypvdz=-157.109406500041 
     C     -4.82814800     -8.30102000      4.47083400
     C     -3.82396700    -10.60863000      4.17327900
     C     -3.67696300    -11.44642400      3.14287000
     C     -3.57506800     -9.12516400      4.13466500
     H     -4.60037500     -7.22191200      4.47763200
     H     -5.22453800     -8.56782700      5.46606300
     H     -5.63105400     -8.47706900      3.73628300
     H     -3.34069000    -11.08998100      2.16322200
     H     -4.17312300    -11.00860200      5.13562100
     H     -3.88759600    -12.51551800      3.23750400
     H     -3.19082200     -8.83763100      3.14040900
     H     -2.78245600     -8.87312200      4.86451800
