15
b3lypvdz=-308.422909297256 
     C     -2.38443700      7.06226200      5.68656800
     C     -3.07861400      7.00991200      4.55008400
     O     -2.52918100      7.39053400      3.34849600
     C     -2.94867400      6.75852000      2.20980200
     C     -3.55440700      5.55807000      2.12947800
     C     -3.99661900      4.94041900      0.87483300
     C     -4.43284800      5.56571500     -0.23114100
     H     -1.33174900      7.35274000      5.69413800
     H     -3.68117900      4.96569100      3.04067100
     H     -3.96346000      3.84337700      0.86505400
     H     -2.87618900      6.82871300      6.63111500
     H     -4.13144200      6.71184500      4.49424300
     H     -2.68452600      7.34883100      1.32997200
     H     -4.55105200      6.65253500     -0.27977300
     H     -4.69972400      4.99833500     -1.12573900
