15
b3lypvdz=-308.420421576992 
     O     -2.12441900      0.83475500     -3.78950000
     C     -1.13353300      0.25740800     -3.03823500
     C     -0.96026400      0.32741000     -1.71450300
     C     -4.23303700      1.46952600     -2.96829500
     C     -2.95001800      1.78734400     -3.18476500
     C     -2.29495500      3.08918200     -2.96841500
     C     -2.79327300      4.13441200     -2.29371900
     H     -1.63218700      0.88761500     -1.06313100
     H     -4.59199900      0.46344900     -3.18449900
     H     -1.31139200      3.17005800     -3.44031900
     H     -2.23396300      5.06954500     -2.22380800
     H     -0.47231400     -0.31572700     -3.69266700
     H     -0.11778400     -0.20014600     -1.26598900
     H     -4.94014400      2.21596600     -2.60664400
     H     -3.76181700      4.09680300     -1.78851200
