15
b3lypvdz=-308.423084191427 
     C     -4.29821000      7.29523800      7.26585400
     C     -3.00149000      7.27037600      6.91428500
     C     -2.45469600      7.39572700      5.56094500
     C     -3.10318900      7.02638000      4.44418200
     O     -2.57235100      7.29006200      3.20965700
     C     -2.95370200      6.52123700      2.14101100
     C     -3.52679700      5.31432500      2.16531600
     H     -2.25237200      7.15555600      7.70738600
     H     -1.44515300      7.80223400      5.44720900
     H     -3.73735700      4.77405900      3.08926700
     H     -4.60337700      7.15272900      8.30492600
     H     -5.09223000      7.46437400      6.53276100
     H     -4.08751400      6.54807600      4.44497300
     H     -2.70112100      7.03934200      1.21319500
     H     -3.78594200      4.83518500      1.22063300
