15
b3lypvdz=-308.423160543086 
     C      0.97224300     -6.20780800     -1.57095200
     C      0.25030400     -6.37834300     -0.46195500
     O      0.17356600     -7.59794000      0.15756500
     C     -0.86796600     -7.86282600      1.02724000
     C     -0.44790100     -8.91417700      1.97132100
     C     -1.16250400     -9.44150700      2.97375200
     C     -2.06273700     -7.24908500      0.97127400
     H      1.47464000     -7.04738000     -2.05401900
     H      0.57286900     -9.26495500      1.79158300
     H     -0.72931100    -10.21190700      3.61508100
     H     -2.30707700     -6.52246700      0.19718100
     H      1.07705000     -5.21065300     -1.99879600
     H     -0.27191000     -5.56529600      0.05366100
     H     -2.18429900     -9.12686800      3.19982000
     H     -2.83526600     -7.49738700      1.69784300
