17
b3lypvdz=-309.655260328521 
     O     -2.13217200      0.73447000     -3.89140600
     C     -5.12760600      5.23999300     -1.45818200
     C     -6.54378000      4.89471600     -0.98795400
     C     -4.39299100      4.16286800     -2.21617800
     C     -4.81395000      2.90223000     -2.43417200
     C     -4.07829600      1.84982000     -3.14405900
     C     -2.74226500      1.70448800     -3.14433600
     H     -7.00322000      5.75260500     -0.47021000
     H     -6.54661600      4.04301700     -0.28696100
     H     -7.19533500      4.62947300     -1.83700000
     H     -5.80538700      2.60900000     -2.06995900
     H     -4.65899900      1.10625300     -3.70112500
     H     -1.20441900      0.67660400     -3.62656900
     H     -4.51253600      5.54154700     -0.58628600
     H     -5.16201200      6.14497200     -2.09583300
     H     -3.42633400      4.46908700     -2.63784600
     H     -2.08818100      2.35395600     -2.54812300
