19
b3lypvdz=-273.74717534291 
     C     -3.68254100     -9.00259900      4.25119000
     C     -2.62352900     -8.72382600      5.33537600
     C     -4.93410300     -8.13581900      4.47046200
     C     -4.01717700    -10.47297000      4.23693700
     C     -3.95775700    -13.57943100      4.35539300
     C     -3.92604200    -12.78875800      3.27204400
     C     -3.69593100    -11.33558900      3.25873400
     H     -2.35738400     -7.65365100      5.36087200
     H     -1.70577300     -9.30376300      5.15242500
     H     -3.00466800     -9.00115100      6.33481000
     H     -4.67671800     -7.06292400      4.47594400
     H     -5.40807000     -8.37259900      5.44043100
     H     -5.68851200     -8.29855400      3.68380000
     H     -4.05921700    -13.25689100      2.28837700
     H     -3.22419200    -10.93765700      2.35037800
     H     -3.24151400     -8.74024800      3.27134600
     H     -4.53898500    -10.84612500      5.12991000
     H     -3.78460800    -13.19030800      5.36346800
     H     -4.15187800    -14.65103800      4.26160100
