16
b3lypvdz=-234.461487190406 
     C     -1.67635200    -25.92247200     -3.01821700
     C     -1.43235800    -27.39281300     -2.63713300
     C     -2.08951600    -25.75083500     -4.45341400
     C     -2.54093100    -25.67815700     -7.52973100
     C     -1.74864100    -24.88534100     -6.79005100
     C     -1.39201000    -25.06454400     -5.37632200
     H     -1.15290900    -27.48337600     -1.57422900
     H     -0.62330600    -27.83189700     -3.24250200
     H     -2.33827600    -28.00200900     -2.80009400
     H     -2.76511200    -25.43598400     -8.57140900
     H     -1.29547800    -24.01320100     -7.27706200
     H     -0.47345900    -24.55692800     -5.05502400
     H     -0.76823800    -25.32597400     -2.82430100
     H     -2.46564700    -25.51459200     -2.35776400
     H     -3.03320900    -26.23102600     -4.74434400
     H     -2.98855800    -26.59005000     -7.12370200
