17
b3lypvdz=-272.519428452035 
     C     -3.31193700      6.56020000      2.50129600
     C     -3.24246700      5.33692000      1.95289800
     C     -3.73760700      4.91129700      0.63397000
     C     -4.38958100      5.67276200     -0.26230800
     C     -4.87202400      5.22675700     -1.62310200
     C     -4.39433100      3.87185900     -2.07088900
     C     -5.16246600      2.78832400     -2.21343500
     H     -2.76025900      4.54528500      2.53753500
     H     -3.54277900      3.86532700      0.37642000
     H     -6.23638800      2.81230600     -1.99811100
     H     -2.90226500      6.75321400      3.49493300
     H     -3.77179200      7.40808000      1.98599200
     H     -4.60715200      6.72025700     -0.02046800
     H     -5.97843800      5.26670600     -1.65197100
     H     -4.53724700      5.98720100     -2.35599000
     H     -3.32217300      3.79389500     -2.29176900
     H     -4.74689400      1.83591100     -2.55270000
