11
b3lypvdz=-231.071507165866 
     C     -2.31026300      7.24440700      5.70934400
     C     -3.01947600      6.91886900      4.62749000
     O     -2.71011300      7.40493100      3.38582600
     C     -3.42066500      6.93948900      2.31499200
     C     -3.20932100      7.39062200      1.07661100
     H     -1.44443800      7.90598700      5.64658400
     H     -2.45884700      8.15502500      0.86732900
     H     -2.60849500      6.83469800      6.67394600
     H     -3.89249600      6.25659000      4.66594400
     H     -4.17015500      6.17237500      2.54395400
     H     -3.80183100      6.98320700      0.25818200
