17
b3lypvdz=-272.520104711002 
     C     -0.91150600     -8.28683700      0.55983000
     C     -0.38353400     -8.47670300      1.77900900
     C     -1.07440600     -8.95651800      2.98574900
     C     -2.38807900     -8.85481900      3.25183700
     C     -3.04912000     -9.34630000      4.50853900
     C     -4.07581800    -10.44276900      4.32385900
     C     -4.27571200    -11.15987600      3.21407100
     H      0.68614700     -8.27223100      1.91338900
     H     -0.42766400     -9.41591500      3.74429800
     H     -3.68056200    -11.00127300      2.31056300
     H     -0.30113200     -7.90733200     -0.26283900
     H     -1.95896300     -8.51246700      0.33865900
     H     -3.04398100     -8.36048500      2.52422800
     H     -2.28312500     -9.69341200      5.22813900
     H     -3.55386600     -8.49315400      5.00584300
     H     -4.68989100    -10.65069800      5.20916900
     H     -5.04098800    -11.93951100      3.17765600
