15
b3lypvdz=-196.394207201456 
     C     -2.07146800    -25.98410200     -3.01390000
     C     -3.32024500    -26.14249700     -2.14178300
     C     -1.09947700    -27.16665900     -2.83125500
     C     -2.36489600    -25.79697500     -4.48537000
     C     -3.55020500    -25.91620800     -5.09090000
     H     -3.03880000    -26.20364900     -1.07714200
     H     -3.87312900    -27.06520300     -2.39237100
     H     -4.01307600    -25.29400300     -2.26409200
     H     -0.80113600    -27.28036500     -1.77550200
     H     -0.18229500    -27.03123200     -3.42753600
     H     -1.57680500    -28.10702100     -3.15859900
     H     -4.46780600    -26.14049200     -4.54090300
     H     -1.53358900    -25.07540100     -2.67347400
     H     -1.48399200    -25.57083400     -5.10203100
     H     -3.64658000    -25.78665800     -6.17264300
