16
b3lypvdz=-234.458948414101 
     C      0.52065100    -23.71710000     -1.13469500
     C     -0.46213200    -24.57945600     -1.43109600
     C     -1.49268700    -24.42506300     -2.47937400
     C     -1.91203100    -23.22760300     -2.92414000
     C     -2.08800100    -25.71562100     -3.01145200
     C     -3.10841700    -26.34991900     -2.05331000
     H      1.22934400    -23.92612000     -0.33021000
     H     -0.50506200    -25.52113500     -0.87133600
     H     -2.65476400    -23.15142100     -3.72210600
     H     -2.65856400    -26.60422900     -1.07974700
     H     -3.51863700    -27.27839800     -2.48158700
     H     -3.94477100    -25.65922400     -1.86336800
     H      0.65644700    -22.78425200     -1.68811100
     H     -1.53977800    -22.29298500     -2.50018600
     H     -1.27638000    -26.43752200     -3.21240700
     H     -2.57931900    -25.51385200     -3.97677200
