15
b3lypvdz=-308.422673236266 
     O     -4.11913500    -14.79919000      3.79997800
     C     -3.23363800    -15.76038300      4.21619000
     C     -1.93333000    -15.61684300      4.49182500
     C     -3.58043300    -10.43719200      4.35332800
     C     -3.79326500    -13.48094900      3.96598600
     C     -4.36527600    -12.53707700      3.19943900
     C     -4.16864500    -11.09378900      3.33810500
     H     -1.39745900    -14.67328500      4.38301900
     H     -5.02234500    -12.88583800      2.39723800
     H     -4.55686700    -10.50238600      2.50156800
     H     -3.74959500    -16.72047700      4.28410000
     H     -1.37239100    -16.49023200      4.82570700
     H     -3.46909000     -9.35120700      4.32786900
     H     -3.19338800    -10.94891700      5.23871400
     H     -3.08974200    -13.26913600      4.77613400
