11
b3lypvdz=-231.070902788825 
     C     -0.82318200    -21.03410800      1.28267500
     C      0.20899500    -20.74908400      0.48212200
     O      0.75704600    -21.53208500     -0.49998400
     C      0.00392200    -22.54552300     -1.03718400
     C      0.55549100    -23.66213000     -1.51636200
     H     -1.36327200    -21.98145400      1.25346800
     H      1.62784100    -23.85256500     -1.43629600
     H     -1.13319900    -20.27792500      2.00530800
     H      0.76783500    -19.81314600      0.55691400
     H     -1.07003500    -22.33055100     -1.09456200
     H     -0.07654200    -24.40143000     -2.00920000
