15
b3lypvdz=-308.423607696511 
     C      1.76562300     -3.75169600     -1.06557600
     C      1.95314400     -4.95292300     -1.63838100
     C      1.17416200     -6.17083000     -1.40354000
     C      0.58154400     -6.47811000     -0.23726200
     O     -0.15868000     -7.61818800     -0.10734700
     C     -0.64514700     -7.94538400      1.12989300
     C     -1.39940300     -9.03038600      1.31248400
     H      2.76197200     -5.05724800     -2.37280600
     H      1.09520700     -6.89583200     -2.22028300
     H     -1.65181700     -9.68983000      0.48000400
     H      2.43026300     -2.91323600     -1.28578300
     H      0.93747200     -3.56184600     -0.37614200
     H      0.66407900     -5.85283100      0.65925800
     H     -0.36617300     -7.25892500      1.93783300
     H     -1.77514700     -9.26953300      2.30674700
