48
mp2631gd=-1219.5021207834 
O          -0.76152100     -2.91902800     -1.51660100
H          -0.24956400     -2.27249900     -2.05071200
H          -0.27016200     -2.98860500     -0.66976200
O          -3.12628900     -1.78255500     -0.98232300
H          -3.80092400     -2.39182600     -1.31938000
H          -2.24843400     -2.21751500     -1.19199500
O          -3.12080400      0.96337800     -1.74359900
H          -3.17957400     -0.00381900     -1.59305500
H          -3.19026400      1.34002300     -0.84081100
O           3.11897400     -0.61683300     -1.87989400
H           3.18115200      0.30351000     -1.54636400
H           3.18671000     -1.16664000     -1.07037700
O           0.63609400      3.01858900     -0.96591900
H           0.56490900      3.90916100     -1.34623500
H           0.12668900      2.42262600     -1.62206300
O           3.10766700      1.94219000     -0.63574000
H           2.22544800      2.38335200     -0.77252300
H           3.77629200      2.60579900     -0.86587900
O          -0.63478700      1.55862700     -2.69499400
H          -0.20855400      0.68310900     -2.81758000
H          -1.56437500      1.35965400     -2.40023200
O           0.68653900      0.95045300      2.95012900
H           0.84029600      1.18210600      3.87982300
H           1.60157400      0.83448200      2.55818500
O          -3.11993300     -0.96343800      1.74408000
H          -3.17924400      0.00373300      1.59361400
H          -3.18961200     -1.34005500      0.84128800
O           3.11985000      0.61687400      1.88029900
H           3.18206000     -0.30348900      1.54671300
H           3.18716300      1.16674900      1.07083800
O          -3.12646100      1.78257500      0.98286700
H          -3.80062200      2.39212900      1.32040700
H          -2.24833900      2.21720000      1.19222200
O           0.68566000     -0.95027000     -2.94971500
H           0.83986500     -1.18202000     -3.87931400
H           1.60060100     -0.83449700     -2.55742100
O          -0.63346900     -1.55886900      2.69426600
H          -1.56307100     -1.35940700      2.39983500
H          -0.20696900     -0.68356500      2.81748700
O          -0.76110800      2.91806200      1.51620700
H          -0.24900400      2.27167300      2.05031900
H          -0.27013500      2.98764400      0.66912400
O           0.63787800     -3.01803100      0.96491800
H           0.56681300     -3.90866400      1.34511500
H           0.12799100     -2.42228400      1.62090000
O           3.10898500     -1.94147400      0.63614400
H           2.22679900     -2.38310000      0.77228200
H           3.77783100     -2.60520800      0.86535300
