39
mp2631gd=-990.84071733882 
O           0.30327900      1.94775100      0.65067000
H           0.28157100      1.33082200      1.41451300
H           1.23487100      2.29022800      0.61397600
O           0.21678000     -0.06319200      2.62026000
H          -0.69687100     -0.43988600      2.40505200
H           0.17779400      0.19704300      3.55420800
O          -1.62171600     -2.74022300     -0.14398200
H          -1.93556500     -3.65388800     -0.22839700
H          -0.63715800     -2.77782500     -0.34081100
O           0.98714600     -2.81909300     -0.66720600
H           1.48004000     -2.50158200      0.11859800
H           1.23654000     -2.18438000     -1.37520400
O           3.63282100      0.12545600     -0.39994800
H           3.30594500     -0.46326700      0.30977000
H           3.08282800     -0.11856700     -1.17452900
O           1.73781700     -0.69469700     -2.37062500
H           1.92757200     -0.77458100     -3.31829500
H           0.98398300     -0.03787300     -2.29500300
O          -3.51308300      0.92396300      0.37399300
H          -4.40922300      1.24898900      0.55183700
H          -2.98802300      1.72622000      0.08697300
O          -2.16629500     -0.98840700      1.98294800
H          -2.67738400     -0.29190300      1.51418700
H          -2.03946300     -1.69647900      1.31230400
O          -1.98333700      2.96569400     -0.50244900
H          -1.19600400      2.87153500      0.08122900
H          -1.63422200      2.62152100     -1.34742900
O           2.94401500      2.60002200      0.50880400
H           3.27892400      1.72961000      0.16356800
H           3.20002500      3.24975500     -0.16303500
O          -2.51624400     -0.61989200     -1.77643400
H          -3.08435600     -0.15116800     -1.13117400
H          -2.27596200     -1.45373700     -1.31918600
O          -0.29625600      0.97989000     -1.89629600
H          -0.06790500      1.18094500     -0.95670100
H          -1.08892900      0.37885100     -1.86638000
O           2.26824400     -1.54130600      1.52582400
H           2.73067400     -2.03155500      2.22289700
H           1.56308700     -1.01782800      1.98296700
