54
mp2631gd=-1371.9533443411 
O           1.64537600      2.58558400     -1.37996600
H           1.85161800      3.49444500     -1.64992300
H           1.63005000      2.61336900     -0.36843600
O           3.68516700     -2.46095500      0.12167500
H           4.31550700     -1.70636100      0.09266400
H           3.17242800     -2.36869700     -0.71009700
O          -0.32609600     -1.16038000     -1.35130400
H          -0.30072300     -1.08672300     -0.36025600
H          -1.13781300     -1.69223800     -1.53065200
O           1.60466800      2.68625500      1.24715700
H           2.28296100      2.08153500      1.64234200
H           0.74755600      2.35689800      1.58978000
O          -0.77441600      1.48912200      2.27501300
H          -1.68195800      1.76070500      1.93126300
H          -0.81050600      1.64902800      3.23153200
O          -0.36647800     -1.09603100      1.38520400
H          -0.48947100     -0.18304300      1.74480200
H           0.50290400     -1.40663900      1.73768900
O           2.18297600     -1.75075000      2.20117700
H           2.36534600     -2.38784000      2.90970200
H           2.71689000     -2.07366400      1.41182200
O          -2.79653700     -2.40293300     -1.45947400
H          -3.13234200     -3.06542600     -2.08320200
H          -3.44438800     -1.63369600     -1.50939300
O          -4.52488200     -0.38296000     -1.40232600
H          -4.07463800      0.48251000     -1.53233400
H          -4.76971700     -0.37329400     -0.45147100
O          -2.82769300     -2.41866000      1.39018600
H          -1.92709100     -2.04629100      1.53147100
H          -2.83354400     -2.64911500      0.43710400
O          -0.73158700      1.43774100     -2.35225700
H           0.06154500      1.92620800     -2.03662800
H          -0.57611400      0.51011600     -2.06408600
O          -3.12286400      2.06097600     -1.41208700
H          -3.46181800      2.77469200     -1.97463200
H          -2.19128000      1.87653700     -1.74887300
O          -4.57855100     -0.40003700      1.41416500
H          -5.31225400     -0.63347600      2.00366200
H          -3.92265800     -1.15714100      1.48438000
O           2.17807800     -1.76219900     -2.18394200
H           1.23107400     -1.60517700     -1.91927900
H           2.14098000     -2.28199200     -3.00170200
O           3.42167400      0.86434400      2.25417300
H           4.08428600      0.68111700      1.55589100
H           2.97681200      0.00155600      2.37731900
O           3.60542300      0.71672600     -2.12848800
H           2.93635300      1.40666700     -1.91420000
H           3.08471400     -0.09773800     -2.29174300
O           4.99332900      0.01607900      0.03313600
H           4.50804200      0.35376900     -0.77900500
H           5.93220200      0.19386500     -0.13170300
O          -3.20968400      2.07801000      1.40254300
H          -3.74795200      1.26348000      1.50898600
H          -3.19023000      2.22259700      0.43054100
