45
mp2631gd=-1143.2860744776 
O           3.13004700     -0.19610200     -2.12931300
H           2.21029800     -0.53408600     -2.06850500
H           3.05267200      0.73081700     -1.81715500
O          -0.16463700      1.08633000      2.55871200
H          -0.25751800      1.09124900      3.52444700
H          -1.05152100      1.42185300      2.21419200
O          -3.78788700     -0.72770300      1.25663500
H          -4.53643800     -1.08603300      1.75824800
H          -3.12329100     -1.47750200      1.19279700
O          -3.70475000     -0.17644200     -1.51219200
H          -3.95381300     -0.35090300     -0.57904000
H          -3.28748200      0.71344000     -1.47569500
O          -2.57218000      1.78829100      1.72109400
H          -3.06088000      0.93848400      1.65848400
H          -2.54950900      2.11767700      0.79478500
O          -2.02528000     -2.70672800      0.88410500
H          -1.13111300     -2.38207600      1.13105600
H          -2.00081300     -2.73751200     -0.09664600
O          -2.42793600      2.30260400     -1.03101100
H          -1.47864400      2.20790100     -1.35260900
H          -2.77686700      3.08368100     -1.48797800
O           3.08938300     -1.19357200      1.82808200
H           3.61656100     -1.49407300      2.58468900
H           3.63987600     -1.40995700      1.01801200
O           0.46417400     -0.82834400     -1.48336000
H           0.45487100     -0.95582100     -0.50381400
H          -0.28634300     -1.37608500     -1.80685100
O           4.53859700     -1.64542000     -0.36450300
H           4.51898200     -2.54091800     -0.73518500
H           4.08878200     -1.07958400     -1.05728900
O           2.56173500      2.31604100     -0.89977700
H           3.14019100      3.09111700     -0.96752400
H           2.54961400      2.07580000      0.07147300
O          -0.00579000      1.87613500     -1.98783700
H           0.82303300      2.24877000     -1.61963800
H           0.12296600      0.90362700     -1.89190900
O           0.37337700     -1.30941700      1.26684600
H           1.30273300     -1.48757900      1.53648900
H           0.13049200     -0.49021600      1.76192900
O          -1.94735500     -2.14913900     -1.89838000
H          -2.25114800     -2.68510700     -2.64739300
H          -2.59666300     -1.38533600     -1.83241600
O           2.49045100      1.60955400      1.68990100
H           1.55631800      1.58696100      1.98766700
H           2.79116700      0.67959200      1.77471900
