36
mp2631gd=-914.62041541918 
O          -1.38758100     -0.47672000     -2.47569900
H          -0.44626500     -0.84052900     -2.38013800
H          -1.60967700     -0.59309500     -3.41289300
O          -2.91628000     -1.35642400     -0.39402300
H          -3.66829400     -1.88907300     -0.69489200
H          -2.41390100     -1.10161000     -1.21103400
O           1.27008400     -2.54287900      0.41036300
H           1.45312000     -3.48778800      0.53183100
H           0.38221500     -2.38515400      0.86507600
O           1.39519900      1.54994900      2.04553500
H           2.03555200      0.84404300      1.81649700
H           1.28568400      2.04965900      1.20422100
O           1.04067900     -1.44177100     -2.22604000
H           1.11210900     -1.93707100     -1.38365200
H           1.69257300     -0.70062400     -2.11924400
O          -0.95077400      0.45294300      2.65600300
H          -0.06496100      0.87227900      2.43066400
H          -1.10282000      0.66677100      3.58971700
O           2.77118300      0.59531500     -1.58296500
H           2.21774800      1.36525000     -1.32725700
H           3.09925800      0.25800800     -0.72635800
O          -2.91963500      1.29204100      0.76440400
H          -3.14537800      0.40224600      0.42917200
H          -2.27813500      1.10799600      1.48283300
O          -1.38567200      2.16700900     -1.36756300
H          -1.38583400      1.32501700     -1.86857100
H          -1.98248600      1.98266800     -0.59915800
O           1.08109600      2.61228300     -0.52413900
H           1.25688200      3.54355000     -0.73068500
H           0.13633300      2.44857600     -0.83853800
O           3.04922800     -0.54997500      1.05167100
H           2.45968900     -1.32783100      0.88466900
H           3.83262800     -0.89760400      1.50463700
O          -1.05435300     -2.13394100      1.59632000
H          -1.74987300     -1.98238900      0.92027700
H          -1.01730300     -1.28426300      2.09239100
