33
mp2631gd=-838.39558712627 
O           0.06606700     -2.31657900     -1.47957800
H           0.49825800     -1.48478500     -1.84462800
H           0.13819100     -2.97516500     -2.18767900
O           1.60235500     -2.29205000      0.87380100
H           1.09597800     -2.51139200      0.05979700
H           0.90958100     -1.97223200      1.49484800
O          -1.95290700      2.18401000     -0.12903600
H          -2.58169000      1.44828600     -0.38445400
H          -2.50916400      2.97402600     -0.04434800
O           2.04247800      2.09618800      0.82623100
H           2.51753600      1.25741800      0.59686600
H           2.71477900      2.69829400      1.18014400
O          -3.63455700      0.18977600     -0.73633100
H          -3.19316800     -0.63943600     -0.39634600
H          -3.75460200      0.02984100     -1.68481600
O           1.43209200     -0.19838600     -2.32277900
H           2.17838500     -0.20680900     -1.69028300
H           1.02260500      0.69319000     -2.18678900
O           0.49203800      2.30513300     -1.60061100
H          -0.40760300      2.29273000     -1.21243000
H           1.07331200      2.43924600     -0.82632100
O          -2.26109700     -1.97225200      0.10967800
H          -1.79307400     -1.75652700      0.94417400
H          -1.53155700     -2.13912100     -0.52451000
O          -0.57389700     -1.20414400      2.27616400
H          -0.51123500     -0.20298900      2.23687000
H          -0.80572700     -1.41191600      3.19460700
O           3.10442800     -0.28936700      0.01810400
H           4.02832400     -0.57685200      0.08494100
H           2.55856300     -1.04725400      0.40094600
O          -0.41277500      1.45615100      2.12102200
H          -1.02424300      1.74433600      1.40693000
H           0.47327400      1.71737600      1.79263600
