14
b3lypvdz=-303.719948361238 
O          -7.48238800     -0.04345900      1.37678300
N          -4.03578500     -0.21515700      0.25219500
N          -6.28370700      1.14509600     -0.15920400
C          -5.22696000     -0.79605800      0.89362200
C          -6.45225000      0.13458800      0.74139300
C          -5.04004200     -1.22614900      2.35219500
H          -3.59977000      0.46049400      0.88625700
H          -3.33521400     -0.94396400      0.10545900
H          -5.46146500      1.10695700     -0.75339100
H          -7.10851200      1.65599600     -0.45187000
H          -5.49910300     -1.68855200      0.29933500
H          -4.28641600     -2.02655400      2.42855700
H          -5.99186300     -1.58444200      2.76948000
H          -4.69932400     -0.37559500      2.96778900
