17
b3lypvdz=-2825.123534930328 
Br          8.74628800     -2.61134400      0.08298100
C           5.54712400     -1.65497500      0.57689600
C           6.64300600     -0.65110900      0.39013000
C           3.45835900     -3.65338000     -0.59696200
C           7.94179900     -0.87447700      0.18373900
N           3.24444400     -2.32236900     -0.03586300
C           4.32235800     -1.37196200     -0.30428900
H           5.93782200     -2.66306500      0.37426500
H           5.20747800     -1.64250500      1.62956200
H           6.35585800      0.40938500      0.43241800
H           3.69399200     -3.66006000     -1.68655900
H           4.28759300     -4.16071500     -0.07926100
H           2.55721500     -4.26670200     -0.43564100
H           8.68282900     -0.08481600      0.05828100
H           2.37821100     -1.94407200     -0.41874800
H           3.94259800     -0.36163500     -0.07080400
H           4.63902600     -1.36109900     -1.37404400
