12
b3lypvdz=-194.221222222903 
O          -2.68579600      1.09268800     -0.88736900
C          -4.99592800      1.74606800     -0.59563600
C          -3.78890200      1.04325000      0.01417100
C          -2.11930100     -0.16594000     -1.18505100
H          -5.84733800      1.73922500      0.10629600
H          -4.75317600      2.79337200     -0.83989500
H          -5.30737400      1.24427500     -1.52626300
H          -3.49307700      1.53521000      0.96218200
H          -4.04471400     -0.00530100      0.26067100
H          -1.72961500     -0.68091500     -0.28246000
H          -2.84270800     -0.84219100     -1.68696900
H          -1.27747200      0.01366000     -1.87137700
