16
b3lypvdz=-325.733245433353 
C           2.69033800      0.54655800      0.08595600
O           0.19478500      1.44792900     -0.89621900
N          -0.80397700     -0.59190000     -0.68138900
C          -2.09939100     -0.19261300     -1.20520800
C           0.24283100      0.27930000     -0.53712200
C           1.47877100     -0.34387300      0.12721500
C           3.95025300      0.11597000     -0.01578200
H           2.47463900      1.61756000      0.15768000
H          -0.70386300     -1.52687200     -0.30578300
H          -2.01475200      0.85471700     -1.52473600
H          -2.89050800     -0.27463000     -0.43856500
H          -2.38560900     -0.81038400     -2.07306300
H           1.68738600     -1.32817500     -0.32572100
H           1.20277200     -0.53717000      1.18393200
H           4.19536500     -0.94790400     -0.10867600
H           4.78946000      0.81678700     -0.01111800
