11
b3lypvdz=-322.365307578351 
O          -2.67718100      1.13332100     -0.88305800
O          -3.14991600     -2.37380000     -0.71071000
N          -4.05447900     -0.39365900      0.09221800
C          -3.76927000      1.02460500      0.02015300
C          -2.15955100     -0.15889800     -1.17291400
C          -3.15834500     -1.16443600     -0.59598200
H          -4.85530800     -0.79616400      0.56496100
H          -3.49260200      1.44020000      1.01188100
H          -4.62669900      1.60325400     -0.37332600
H          -1.16514600     -0.31339500     -0.71189900
H          -2.06050100     -0.29252800     -2.26292400
