13
b3lypvdz=-174.367642270694 
C          -5.12831600      1.73579600     -0.53340800
C          -3.89844700      1.04526300      0.07683100
N          -3.90792300     -0.41796400      0.07872500
C          -5.03695800      3.26110800     -0.51356300
H          -6.03035700      1.40330300      0.01441600
H          -5.25858300      1.38170200     -1.57403800
H          -2.99099300      1.37724900     -0.46004500
H          -3.76741800      1.38452400      1.12115500
H          -4.74752800     -0.74810900      0.56424100
H          -4.01975000     -0.75349600     -0.88251200
H          -5.91293200      3.73116800     -0.98824000
H          -4.96914200      3.64567300      0.51868300
H          -4.14275500      3.61758200     -1.05384500
