16
b3lypvdz=-271.606016882669 
O          -6.95766500      0.75755800      1.56808600
C          -5.24276300     -0.84267700      1.00579500
C          -6.26987100      0.22961400      0.72496000
C          -5.14578200     -1.23002400      2.48208400
C          -4.25973000     -2.45044800      2.76570500
C          -2.76620400     -2.23249500      2.50328000
H          -4.27923300     -0.48153500      0.59501100
H          -5.50352200     -1.71342800      0.36983800
H          -6.36639000      0.51860700     -0.35720000
H          -6.16582300     -1.41886300      2.85589800
H          -4.77928700     -0.36054700      3.05663400
H          -4.62166000     -3.30794300      2.16700200
H          -4.39927700     -2.74153200      3.82187800
H          -2.18138200     -3.13017800      2.76480700
H          -2.55827600     -2.00240500      1.44381800
H          -2.37273500     -1.39670200      3.10740300
