18
b3lypvdz=-326.91692243843 
C           5.60405900     -1.96542600      0.38956800
O          -0.12287400      1.25712800     -1.02328000
N           3.17343600     -2.05602700     -0.00745300
C           0.11393500      0.16302900     -0.56257100
C           1.44791100     -0.26920100     -0.00530000
C           4.41245600     -1.35086600     -0.33627800
C           1.98776900     -1.53897400     -0.68902300
H           6.52797600     -1.41309600      0.15576300
H           5.75785900     -3.01491000      0.08183400
H           5.44848400     -1.95057100      1.48029000
H           3.28686800     -3.03944500     -0.25993100
H          -0.68546300     -0.62797800     -0.52483900
H           2.14573300      0.57675600     -0.09982200
H           1.31535200     -0.51026600      1.06624800
H           4.30361700     -0.29695400     -0.02655200
H           4.60878900     -1.33577200     -1.43310100
H           1.20914900     -2.32092700     -0.64531500
H           2.17144400     -1.31899900     -1.76493800
