13
b3lypvdz=-195.180412846628 
C           5.64600400     -1.77445100      0.40308500
C           5.04035600      1.11356400     -0.08842300
C           6.71401600     -0.71367400      0.29748900
C           6.30358300      0.67361700      0.04738800
C           8.02149100     -1.01840200      0.41865000
H           5.05803200     -1.84107800     -0.52933600
H           6.08595900     -2.76360600      0.59979200
H           4.93769500     -1.54666900      1.21876100
H           4.17528300      0.44806300     -0.02141700
H           4.83453100      2.16962000     -0.28076200
H           7.11875100      1.40294500     -0.03609800
H           8.35511000     -2.04333800      0.60283900
H           8.79929100     -0.25239300      0.34113300
