12
b3lypvdz=-157.109247516981 
C           2.69956200      0.52437300      0.20697200
C           5.52511400     -1.80626400      0.39814300
C           4.31105400     -1.32772400     -0.40860400
C           3.92562500      0.09528700     -0.10614300
H           1.85050600     -0.16492000      0.27395700
H           2.49570500      1.57930900      0.40951500
H           6.40408100     -1.16732500      0.20477500
H           5.79919300     -2.83900400      0.12781400
H           5.32044400     -1.77660800      1.48186800
H           3.44459900     -1.98835600     -0.22799900
H           4.55141300     -1.41538600     -1.48701400
H           4.74520300      0.82681800     -0.15598400
