19
b3lypvdz=-307.050964691421 
N          -3.85244600     -0.42628900      0.09192800
N          -6.32429900      1.24989900      0.04051500
C          -5.07533600      1.69177700     -0.61753800
C          -3.84582900      1.03498800      0.02896900
C          -5.11764600      3.22054200     -0.47192700
C          -7.31216700      2.35373500      0.03980100
C          -6.60754100      3.55525100     -0.62760500
H          -4.70891700     -0.71562200      0.57370900
H          -3.93014800     -0.81148500     -0.85420100
H          -6.70420000      0.42877700     -0.42386800
H          -5.07025100      1.43443500     -1.70169500
H          -2.93782500      1.35704700     -0.51280800
H          -3.75378500      1.41301400      1.06291800
H          -4.76332100      3.49994500      0.53632700
H          -4.47674300      3.73426600     -1.20417300
H          -8.23778700      2.07554200     -0.49429700
H          -7.60730600      2.59795600      1.07670800
H          -6.88782300      4.51537400     -0.16759800
H          -6.87113100      3.61374600     -1.69716400
