16
b3lypvdz=-288.577101059525 
C           2.59001100      0.54696200      0.16977400
C           5.03421000      0.95976600      0.14199200
C           6.29570900      0.51570000     -0.05057500
C           7.52756500      1.31425800      0.07113200
C           7.58602100      2.64122600     -0.18625600
N           8.66375500      0.54319700      0.37902700
C           3.85457600      0.12385700     -0.00904400
H           1.74085500     -0.12836200      0.04400100
H           2.36848800      1.58143700      0.44906200
H           4.87229900      2.00112200      0.44347800
H           6.44894600     -0.53886500     -0.31338300
H           6.72004700      3.17256100     -0.57893500
H           8.51612600      3.20134600     -0.05906100
H           8.49966100     -0.14892500      1.10836400
H           9.48066400      1.10463500      0.60995500
H           4.03346500     -0.92091700     -0.29193100
