11
b3lypvdz=-2746.572379521968 
Br          8.90328600     -2.37304900      0.51345200
C           5.62579600     -1.89960900      0.34558400
C           6.55428200     -0.72439300      0.36484500
C           7.89546500     -0.72681200      0.39790300
N           8.74639500      0.37251600      0.26034600
H           5.08694300     -1.97327500     -0.61704300
H           6.16571400     -2.84365300      0.50388200
H           4.85490600     -1.80595000      1.13044200
H           6.09578500      0.27327000      0.32318600
H           8.23588900      1.25397400      0.31562000
H           9.51474100      0.36708000      0.93098200
