8
b3lypvdz=-228.929328142757 
O          -2.57224400      1.18752000     -0.89744000
C          -3.19377300     -1.16468700     -0.59441400
O          -3.11242500     -2.35542900     -0.77175000
C          -2.18654800     -0.15343900     -1.13103500
H          -2.37527400      1.40259800      0.02551500
H          -4.04016100     -0.69896500     -0.01523700
H          -1.18943400     -0.40563500     -0.71542700
H          -2.11844000     -0.29166300     -2.22391100
