18
b3lypvdz=-326.908092078956 
O          -0.03637400      1.24481100     -1.04571100
C           3.33438000     -3.57037500     -0.51492200
N           3.14436100     -2.19056200     -0.08526900
C           0.18152600      0.18301400     -0.50987800
C           1.53639600     -0.28101800     -0.02575100
C           4.36046900     -1.41426000     -0.28744300
C           1.96757700     -1.59033200     -0.70763800
H           3.54502000     -3.67217500     -1.60581800
H           4.18189300     -4.01290100      0.03145500
H           2.43499200     -4.16494900     -0.28642200
H          -0.65118300     -0.55711700     -0.34503200
H           2.25445500      0.53481300     -0.19838000
H           1.46742000     -0.48610500      1.05926600
H           4.25359200     -0.40224300      0.13115900
H           5.19413900     -1.90441100      0.23896700
H           4.64380500     -1.31612600     -1.36159500
H           1.14521000     -2.32193300     -0.61265300
H           2.11012100     -1.40393000     -1.79903500
