14
b3lypvdz=-212.426335319121 
C           5.51953900     -1.67274500      0.55318900
C           6.64389600     -0.68084800      0.45905100
C           7.91276800     -0.97468000      0.16069800
N           3.25678500     -2.30553800     -0.16954600
C           4.34129400     -1.34006700     -0.37044100
H           5.89723700     -2.68548300      0.32110700
H           5.12821300     -1.70871600      1.58698000
H           6.37482300      0.36635900      0.65623900
H           8.22876100     -2.00365900     -0.04236000
H           8.68402600     -0.20145300      0.10891500
H           2.46158000     -2.05626000     -0.76160300
H           3.55722500     -3.22499500     -0.50542700
H           3.95289000     -0.33886400     -0.10988300
H           4.71176400     -1.27125200     -1.41702000
