17
b3lypvdz=-272.536579380583 
C           2.62810600      0.49642000      0.07711500
C           5.05651400      0.99252500      0.03700700
C           6.34665400      0.57866800      0.00509000
C           7.54616100      1.41822400     -0.00649000
C           7.61010100      2.76183900      0.01303300
C           1.44011400     -0.41598200      0.08845800
C           3.91650100      0.09699700      0.04684700
H           2.41361700      1.57364600      0.09737300
H           4.83150500      2.06642700      0.05777900
H           6.53203600     -0.50202100     -0.01503000
H           8.49141800      0.86401600     -0.03594000
H           6.71629800      3.39194100      0.04166100
H           8.57294300      3.27738700      0.00037200
H           0.77754500     -0.22156200     -0.77503400
H           1.73995600     -1.47600900      0.06002400
H           0.82138700     -0.25697800      0.99095300
H           4.13734500     -0.97893900      0.02788300
