11
b3lypvdz=-173.154037633612 
C           5.60551900     -1.85824200      0.35981700
N           8.75667500      0.32637200      0.23512000
C           6.51189800     -0.66241300      0.30899400
C           7.85071700     -0.73061800      0.39154900
H           5.02342400     -1.98354800     -0.57279900
H           6.18072900     -2.78610900      0.51704900
H           4.86023200     -1.78250300      1.17374800
H           8.33386300      1.24769200      0.33449100
H           9.57855200      0.25527400      0.83050500
H           6.04020900      0.32052200      0.17165800
H           8.33618300     -1.70502700      0.52986700
