13
b3lypvdz=-269.420866685237 
O          -3.12764000      0.99841300     -1.18551700
O          -3.02262100      1.50071200      1.12308600
C          -3.82792000      1.15513400      0.02099100
C          -2.28032000     -0.14134900     -1.24322000
C          -1.81969400     -0.31478700     -2.68157100
H          -2.64480700      0.68608900      1.48481100
H          -4.41492500      0.23395600      0.23817400
H          -4.51175000      2.00004000     -0.14326500
H          -1.40856100     -0.00720600     -0.57197300
H          -2.83592200     -1.04179500     -0.89923700
H          -2.68040600     -0.50148500     -3.34319600
H          -1.11638900     -1.15841800     -2.77213800
H          -1.31414400      0.59929600     -3.03274400
