15
b3lypvdz=-287.67423420486 
O          -3.36962500     -2.16241700     -0.91141400
N          -3.99790600     -0.32019600      0.26119300
C          -5.19349100     -0.93257000      0.82039100
C          -2.02863600     -0.17645200     -1.19378800
C          -3.18868300     -0.98726000     -0.61843900
C          -1.99268300     -0.25937000     -2.72315100
H          -3.88028500      0.68049300      0.35841100
H          -6.04284800     -0.92299900      0.11208300
H          -5.48707300     -0.39483500      1.73393500
H          -4.97236000     -1.97974700      1.07114000
H          -2.06765100      0.87563200     -0.85931600
H          -1.10230500     -0.60940200     -0.77715300
H          -2.90729300      0.16920700     -3.16756200
H          -1.92548800     -1.30887100     -3.04683100
H          -1.13157300      0.29269000     -3.13150100
