16
b3lypvdz=-362.840197149391 
O          -2.58849300      1.14660000     -0.85752200
O          -2.81970200     -2.30545600     -0.29074400
N          -0.84103800     -0.38953300     -0.48628300
C          -2.09197100     -0.15323800     -1.17409400
C          -3.11165500     -1.19229800     -0.66468500
C          -1.98455800     -0.22912500     -2.71155700
C          -3.27384100      0.06646600     -3.48045100
H          -2.26319800      1.32108300      0.04096600
H          -0.04726300     -0.12301300     -1.07056600
H          -0.75770100     -1.38660100     -0.27450800
H          -4.16638300     -0.81995500     -0.66003900
H          -1.59018200     -1.22602500     -2.97485100
H          -1.21405300      0.51170500     -2.99285600
H          -4.05194500     -0.69285300     -3.29694600
H          -3.07853900      0.08021300     -4.56490500
H          -3.67858100      1.04703000     -3.18735900
