13
b3lypvdz=-323.564782723756 
O          -2.62097900      1.35235400     -0.88293700
O          -7.68271900     -0.15911700      1.20723400
N          -6.10438300      1.21724700      0.27867100
C          -4.96649000      1.40425900     -0.60114400
C          -3.62699000      1.19160000      0.10396400
C          -6.80604200      0.05084500      0.39245000
H          -1.76726400      1.14934900     -0.47547800
H          -6.33621300      1.93614700      0.95957900
H          -4.99023000      2.41140000     -1.04870400
H          -5.04095600      0.68733200     -1.43532900
H          -3.51787300      1.92429400      0.93165600
H          -3.61690900      0.18095700      0.56014400
H          -6.48225300     -0.69946400     -0.37340600
