10
b3lypvdz=-135.081344026254 
N           3.16082700     -2.20805300     -0.05874100
C           1.49489000     -0.40859600      0.08972100
C           1.92672300     -1.67197900     -0.64785500
H           3.91765400     -1.53340700     -0.20420900
H           3.45100600     -3.04464500     -0.57109600
H           0.54942600     -0.01456800     -0.31827200
H           2.25543500      0.38714100     -0.00895400
H           1.35882800     -0.61772200      1.16357500
H           1.14315200     -2.44399000     -0.53558000
H           1.99865900     -1.45008000     -1.73728800
