15
b3lypvdz=-287.671517979478 
O          -7.33540100      0.13500000      1.58785800
N          -6.23885000      1.29439600     -0.01553700
C          -5.10528500      1.61710000     -0.86191400
C          -5.07263400     -0.56792300      1.10145600
C          -6.31559100      0.30450600      0.93140700
C          -5.14961500     -1.44746000      2.34733200
H          -7.09394400      1.83102600     -0.11734700
H          -4.21440800      1.90006100     -0.27380800
H          -5.37283300      2.47464300     -1.49489300
H          -4.82188200      0.78373100     -1.52944500
H          -4.17291100      0.07156000      1.12584900
H          -4.96757600     -1.18706000      0.19027300
H          -4.30200600     -2.15029000      2.38835800
H          -6.08626100     -2.02360400      2.35757900
H          -5.13650300     -0.83318800      3.26153200
