10
b3lypvdz=-193.034420659419 
C           0.31422800      0.26055700     -0.59592800
C           1.50924700     -0.38457300      0.06616200
C           1.90192700     -1.69314500     -0.63571700
O           0.32122300      1.34425300     -1.13143200
H          -0.62119900     -0.36484300     -0.57681200
H           2.33860600      0.34061300      0.05941500
H           1.23323000     -0.60465900      1.11502500
H           2.72997000     -2.18426400     -0.10212700
H           1.05614500     -2.40087000     -0.66671700
H           2.23072400     -1.50177000     -1.67026900
