12
b3lypvdz=-157.112669650852 
C           2.66158400      0.46307600      0.19110400
C           1.41703400     -0.38040100      0.23746500
C           4.38725200     -1.29757700     -0.49071100
C           3.90886700      0.07923200     -0.11860000
H           2.51013200      1.51905000      0.45109900
H           0.64713300      0.02867600     -0.44155500
H           1.59297000     -1.42908400     -0.04704700
H           0.98042900     -0.37235000      1.25339100
H           3.58397000     -2.05009400     -0.48007000
H           5.17609000     -1.63528000      0.20510800
H           4.83813400     -1.29452200     -1.50071600
H           4.69080500      0.84987400     -0.10016800
