13
b3lypvdz=-323.579433907927 
O          -2.54336500      1.10974800     -0.79959100
O           0.26050500      1.38307100     -1.06226500
N          -0.84932500     -0.53236900     -0.50770900
C          -2.10137100     -0.16125900     -1.19951700
C          -1.94247100     -0.26845800     -2.71811800
C           0.23074600      0.28710000     -0.51424400
H          -1.81351700      1.71580000     -1.02956900
H          -0.79615300     -1.40483800      0.00482700
H          -2.86556300     -0.87292700     -0.84870800
H          -2.89492300     -0.00410600     -3.20302800
H          -1.65545900     -1.28929600     -3.02080200
H          -1.16503600      0.42687300     -3.06782800
H           1.10243200     -0.13333900      0.04115300
