20
b3lypvdz=-328.127927737707 
O          -3.61569100      1.52998900      1.42856000
N          -3.95904800     -0.41073200      0.13537200
C          -5.19850300      1.78709000     -0.31455500
C          -3.92696400      1.04788200      0.12770500
C          -5.13835300     -1.09576600      0.68130000
C          -4.95969000      3.28227100     -0.53460700
C          -5.17599100     -1.06748000      2.20877000
H          -2.88502300      0.97682200      1.74703300
H          -3.75837800     -0.75378300     -0.80262300
H          -5.98034500      1.63479900      0.44769600
H          -5.56119800      1.31812200     -1.24740900
H          -3.11653200      1.30679400     -0.58715900
H          -6.09201900     -0.69496100      0.28025700
H          -5.07794800     -2.14143700      0.33596500
H          -5.88071100      3.79629700     -0.85393100
H          -4.59142600      3.75851800      0.38693100
H          -4.20116300      3.45091100     -1.31892400
H          -4.23498400     -1.46842500      2.62096300
H          -6.00732000     -1.68278400      2.59013100
H          -5.29291300     -0.04092800      2.58482600
