10
b3lypvdz=-284.263854527856 
O          -2.59530600      1.18366100     -0.70830900
O          -2.84213400     -2.28572800     -0.26240400
N          -0.84094000     -0.40840200     -0.58886600
C          -2.15416700     -0.10933700     -1.09262500
C          -3.15000800     -1.16882700     -0.60807100
H          -2.25200000      1.30245400      0.19465200
H          -0.10487300     -0.12483700     -1.23366800
H          -0.76157000     -1.41330100     -0.41513700
H          -2.24753300     -0.11246000     -2.20277700
H          -4.21036900     -0.80802300     -0.60219500
