12
b3lypvdz=-194.225054757498 
O          -3.08858700      0.97301000     -1.15293900
C          -3.69760900      1.07267900      0.11349900
C          -1.78485600     -0.23032500     -2.73849900
C          -2.41195000     -0.25533500     -1.35409300
H          -2.95546900      0.98943200      0.93512100
H          -4.47181600      0.29349400      0.26968700
H          -4.18220400      2.05962400      0.16942000
H          -2.56024300     -0.11381400     -3.51259200
H          -1.22788100     -1.16105600     -2.93450200
H          -1.08541800      0.61654300     -2.82856600
H          -1.63066300     -0.39805200     -0.57670200
H          -3.12250400     -1.10459900     -1.25393400
