13
b3lypvdz=-265.602364119598 
O          -3.64187900      1.54431600      1.30362800
N          -3.98370100     -0.42491100      0.09206200
N          -6.23806300      1.37413300      0.15870800
C          -5.03978800      1.75753400     -0.58868800
C          -3.82796800      1.01737800     -0.00631400
H          -3.13612300      0.86408000      1.77552500
H          -4.97112400     -0.60650300      0.30494200
H          -3.79816000     -0.86064500     -0.81374400
H          -7.06176600      1.83030300     -0.23555400
H          -6.14136700      1.73691300      1.11064900
H          -4.81384000      2.84496000     -0.58694500
H          -5.16686400      1.44789900     -1.64074000
H          -2.94175600      1.22484400     -0.64102900
