13
b3lypvdz=-269.421497904658 
O          -2.68923400      1.07971000     -0.83624400
O          -3.52331300      1.66635900      1.25049000
C          -4.98874200      1.73621900     -0.58876500
C          -3.80974700      1.01461000      0.03522600
C          -2.12876100     -0.16958500     -1.20069500
H          -2.71317100      1.26971200      1.60598500
H          -5.84962900      1.72796100      0.09744100
H          -4.70527300      2.78071200     -0.79468300
H          -5.27395400      1.25170300     -1.53467800
H          -4.05630800     -0.05586300      0.21653100
H          -1.78291300     -0.75268000     -0.32248900
H          -2.83655700     -0.79472700     -1.78075100
H          -1.25739900      0.04686800     -1.83666800
