14
b3lypvdz=-361.64971491403 
O          -2.65865900      1.13477900     -0.89139800
O          -3.16818600     -2.36016800     -0.64674600
N          -4.07169600     -0.36148100      0.10042400
C          -3.75793200      1.04560000     -0.00021100
C          -5.22139800     -0.88741700      0.79698300
C          -2.16287100     -0.16758800     -1.16740900
C          -3.16833000     -1.14442500     -0.56774000
H          -3.49379000      1.47052700      0.99224000
H          -4.61330200      1.62287700     -0.40343500
H          -6.16364400     -0.51991400      0.35456600
H          -5.20805300     -0.61146900      1.86637000
H          -5.17893200     -1.98239400      0.70274200
H          -1.16578500     -0.33232200     -0.71748200
H          -2.07772300     -0.32380400     -2.25590400
