17
b3lypvdz=-342.99411314869 
O          -2.96948100     -2.18657400     -0.24571500
N          -4.21292200     -0.30243700      0.07050400
N          -0.70122000     -0.61491400     -0.62219000
C          -5.30469600     -0.97256300      0.76875800
C          -2.01689700     -0.10424800     -0.98790400
C          -3.09455000     -0.97025000     -0.33676500
C          -5.05859300     -1.11344400      2.27401100
H          -4.17189000      0.70953500      0.10188600
H          -0.01254400     -0.33729400     -1.32242300
H          -0.75641000     -1.63720700     -0.64913300
H          -6.22708000     -0.40105500      0.57270000
H          -5.41993900     -1.96650400      0.31282500
H          -2.11942700      0.94881500     -0.66691100
H          -2.23813000     -0.12582100     -2.08035500
H          -4.18602600     -1.75886900      2.46030100
H          -5.93268600     -1.56470200      2.77295200
H          -4.86700900     -0.13187100      2.74065800
