14
b3lypvdz=-233.23791110416 
C           5.03906600      0.93671300     -0.00340300
C           6.71939700     -0.87791300      0.30707200
C           6.42586800      0.43027000      0.13278500
C           7.53944300      1.39674400      0.08051600
C           7.46912300      2.72790400     -0.07955000
C           3.91168900      0.21527300     -0.07356100
H           4.93601700      2.02431800     -0.05669200
H           5.95033100     -1.65070100      0.37061200
H           7.75545900     -1.21297600      0.40179000
H           8.53208100      0.94503200      0.19190400
H           6.52622700      3.26622500     -0.19856700
H           8.37947000      3.33169200     -0.09972500
H           3.89931400     -0.87901400     -0.04228200
H           2.94411400      0.71333200     -0.17089900
