12
b3lypvdz=-190.399041433926 
C          -5.03361800      1.72288000     -0.62906300
C          -3.83430200      1.01280300      0.01416900
N          -3.91988100     -0.44521400      0.12936000
N          -6.27804900      1.39234600      0.07843600
H          -4.87775100      2.81410700     -0.54163900
H          -5.05373500      1.48856000     -1.71982800
H          -2.92708600      1.26244700     -0.56576600
H          -3.68542100      1.41422700      1.03134300
H          -4.71669500     -0.68604400      0.72439500
H          -4.12070000     -0.85910600     -0.78605600
H          -7.03841900      1.96654100     -0.29147400
H          -6.54284500      0.43085100     -0.15127800
