17
b3lypvdz=-251.703796994849 
C           5.49137400     -1.71821200      0.37372900
C           6.62853000     -0.73246400      0.41201600
C           6.64709100      0.49695100     -0.11386300
N           3.16682800     -2.27386600     -0.17428100
C           4.18011200     -1.22548600     -0.23588300
C           1.85114600     -1.84635100     -0.62474900
H           5.83459400     -2.61883200     -0.17508100
H           5.28220700     -2.08080600      1.39693100
H           7.52694400     -1.09279200      0.92922400
H           5.78774700      0.92171200     -0.63954400
H           7.53293700      1.13245100     -0.03390800
H           3.47630700     -3.06882700     -0.73691800
H           3.80939900     -0.36443700      0.34900800
H           4.35511900     -0.84263500     -1.26752700
H           1.46780000     -1.05975100      0.04696100
H           1.14989900     -2.69476200     -0.57447700
H           1.82126700     -1.43009100     -1.65783700
