16
b3lypvdz=-234.458906254959 
C           2.84034400      0.47250900      0.45523800
C           5.35602100     -1.93560200      0.49638500
C           5.12057900      1.19467600     -0.19696800
C           4.94671600      2.50818100     -0.39642100
C           4.41402500     -1.22500800     -0.48875100
C           4.05143400      0.18345100     -0.05399400
H           2.05984900     -0.29003700      0.52076300
H           2.59838200      1.46799100      0.83307200
H           6.27824600     -1.35668100      0.66637400
H           5.65390700     -2.92414600      0.11096500
H           4.86716200     -2.08024500      1.47313000
H           6.14546800      0.80452500     -0.17314100
H           5.79978500      3.18301900     -0.49765200
H           3.94933200      2.94844200     -0.47896200
H           3.49343300     -1.81871500     -0.60759000
H           4.89941600     -1.18365900     -1.48024900
