10
b3lypvdz=-230.129904758978 
O          -2.88182500      1.05983300     -1.12033600
O          -3.28032800      1.36951700      1.19106600
C          -3.82614300      1.11695800     -0.07969200
C          -2.07911800     -0.10438800     -1.09634800
H          -2.91645500      0.54064700      1.53471300
H          -4.43029500      0.18126000     -0.07241900
H          -4.47100700      1.97511100     -0.31589500
H          -1.38874800     -0.12248100     -0.22973900
H          -2.69823500     -1.02620800     -1.07913800
H          -1.47144600     -0.10345000     -2.01331100
