17
b3lypvdz=-251.706785726041 
C           5.52247400     -2.04447300      0.46836500
C           4.68065600      1.21894000     -0.29397800
N           3.12783200     -2.02686300     -0.00691900
C           4.37988300     -1.29812600     -0.23528500
C           2.02795300     -1.61099900     -0.86907200
C           4.25620400      0.10728800      0.31188700
H           6.47752500     -1.51823000      0.32063400
H           5.62752000     -3.06496200      0.05991700
H           5.32260200     -2.12624500      1.54953500
H           5.13706700      1.19112800     -1.28910700
H           4.59677300      2.19784600      0.18612400
H           3.30262300     -3.02173400     -0.15606700
H           4.63048600     -1.22698200     -1.31910600
H           1.77655400     -0.55613600     -0.67000500
H           1.13539400     -2.21560200     -0.64421500
H           2.24159000     -1.69836000     -1.95921700
H           3.79736500      0.16491100      1.30680900
