17
b3lypvdz=-309.66751262742 
C           2.68973800      0.46426400      0.08392100
C           5.58007500     -1.79921600      0.44335100
O           0.26447200      1.42706100     -1.06648800
C           0.24160800      0.33097600     -0.55916500
C           1.42751700     -0.35083800      0.09455200
C           4.38840800     -1.38529300     -0.42920600
C           3.93433500      0.02166600     -0.14123500
H           2.54433500      1.53258800      0.27269800
H           6.43146500     -1.11242400      0.29958000
H           5.92558000     -2.81437600      0.19052900
H           5.31242200     -1.78176100      1.51327500
H          -0.70507700     -0.27202500     -0.52933600
H           1.54549000     -1.33344600     -0.39651800
H           1.10289700     -0.59835000      1.12733900
H           3.56117800     -2.10091300     -0.29123200
H           4.68846300     -1.45978700     -1.49282500
H           4.74069300      0.76657400     -0.11173900
