8
b3lypvdz=-79.764251162882 
C          -4.99225400      1.72847700     -0.59514700
C          -3.76624500      1.04052300      0.01374700
H          -5.90538900      1.49858600     -0.02087900
H          -4.87106000      2.82540200     -0.60676100
H          -5.15957100      1.39855400     -1.63465900
H          -2.85311200      1.27041200     -0.56052400
H          -3.59892600      1.37044900      1.05325800
H          -3.88744200     -0.05640200      0.02536400
