12
b3lypvdz=-248.375562922233 
O          -3.28357400     -2.43101300     -0.62122400
N          -4.00620300     -0.35985700      0.07520000
C          -3.81703200      1.07395600      0.03312800
C          -5.17605100     -0.87274800      0.76480700
C          -3.16882200     -1.21842300     -0.58224000
H          -2.89084300      1.30833700     -0.51295100
H          -3.73798900      1.49330500      1.05233200
H          -4.65632200      1.58177200     -0.47721000
H          -6.10554400     -0.49960500      0.29762800
H          -5.17392900     -0.56121900      1.82475300
H          -5.14973400     -1.96855300      0.70028000
H          -2.33915700     -0.66995200     -1.09150400
