6
b3lypvdz=-115.656684207861 
O          -2.65121600      1.12990600     -0.88232700
C          -3.74774100      1.02528400      0.01264000
H          -2.04373500      0.40548500     -0.67657000
H          -3.44636200      1.11146000      1.07777900
H          -4.32252500      0.08408600     -0.11166900
H          -4.42852200      1.86157900     -0.21345500
