15
b3lypvdz=-287.677342201367 
O          -3.22863100     -2.24283000     -0.58158500
N          -4.18805600     -0.28620600      0.06812800
C          -5.31130200     -0.90947700      0.75696700
C          -2.02945700     -0.21044600     -1.07671400
C          -3.19146900     -1.02128600     -0.51562400
C          -5.04999900     -1.13392500      2.25012200
H          -4.08536100      0.71990800      0.12242500
H          -6.20604200     -0.28241700      0.60388600
H          -5.48336000     -1.87364800      0.25647200
H          -2.22711100      0.87253200     -1.13131600
H          -1.14545700     -0.37736000     -0.44038400
H          -1.78492500     -0.58885400     -2.08011800
H          -4.19204700     -1.81111100      2.39039300
H          -5.92737100     -1.58900200      2.73978500
H          -4.82541100     -0.18437600      2.76676300
