18
b3lypvdz=-326.959006392936 
O          -2.85449400     -2.21274600     -0.25501600
N          -4.06989300     -0.30452800     -0.00568900
C          -5.23185000     -0.95668400      0.57027200
C          -1.86803000     -0.15032100     -1.04479300
C          -2.95028700     -0.99687400     -0.38482800
C          -1.94671000     -0.24245600     -2.58547400
C          -1.55864200     -1.62322800     -3.13035700
H          -4.07591600      0.70133500     -0.11744500
H          -6.15456600     -0.61350100      0.07448200
H          -5.32041500     -0.76140000      1.65574900
H          -5.11265400     -2.03821300      0.41570000
H          -1.95230400      0.90454500     -0.72867200
H          -0.89355300     -0.52722300     -0.69494300
H          -2.97452300      0.01603700     -2.90281100
H          -1.29112700      0.53327700     -3.01805400
H          -2.09630500     -2.41878600     -2.59359900
H          -1.79055500     -1.71045400     -4.20564800
H          -0.47667400     -1.80438100     -3.00217400
