13
b3lypvdz=-232.321628101191 
O          -3.93079500     -1.83528600     -1.30022400
C          -2.18987400     -0.16283000     -1.23281400
C          -3.22852500     -1.09297000     -0.65213100
C          -1.94598600     -0.32443800     -2.73529000
C          -1.21779200     -1.62417000     -3.09128700
H          -2.53848200      0.86059000     -0.98618700
H          -1.25557700     -0.29243200     -0.65189600
H          -3.33590900     -1.03402700      0.46506100
H          -2.91712100     -0.28821100     -3.25662500
H          -1.36284400      0.54050700     -3.09538100
H          -1.80358600     -2.50149000     -2.77784400
H          -1.04706100     -1.69917600     -4.17722900
H          -0.23334800     -1.67776600     -2.59495100
