17
b3lypvdz=-251.704881293632 
C           5.52958800     -1.65296800      0.53334300
C           6.67613200     -0.68698300      0.43770500
C           7.93699000     -1.00729400      0.13269100
N           3.20028600     -2.17118500     -0.05067800
C           4.30022500     -1.24373800     -0.28765000
C           1.97160800     -1.81951800     -0.74740600
H           5.86761100     -2.65933100      0.22528500
H           5.20023300     -1.74146600      1.58559400
H           6.43537000      0.36172500      0.66097200
H           8.22741300     -2.03894800     -0.09252800
H           8.72844000     -0.25390800      0.09875700
H           3.49153200     -3.10851600     -0.33510600
H           3.96800500     -0.23863300      0.03334800
H           4.57703100     -1.14424900     -1.36324900
H           1.59760800     -0.85311800     -0.36719700
H           1.19813900     -2.57566300     -0.53834600
H           2.06819100     -1.72130700     -1.85293600
