15
b3lypvdz=-287.657773918272 
O          -7.56189700     -0.30215700      1.04111600
N          -6.24043400      1.31160700      0.07437400
C          -4.96374400      1.70828500     -0.52256300
C          -3.72102900      1.01678100      0.03721600
C          -7.31927300      2.28629700      0.02812100
C          -6.49529400      0.06491900      0.57233800
H          -4.86530400      2.79372600     -0.34609100
H          -5.00273700      1.57267200     -1.62300800
H          -2.82571500      1.49580100     -0.38940500
H          -3.67323400      1.11065100      1.13450500
H          -3.67314600     -0.05184100     -0.22242300
H          -7.48985200      2.63846700     -1.00476700
H          -8.22791800      1.80034200      0.40415500
H          -7.08714000      3.16313600      0.65823600
H          -5.61368200     -0.60978500      0.51689700
