19
b3lypvdz=-252.928576270814 
N          -4.02292300     -0.57830800      0.14374400
C          -3.67780800      0.83613500      0.18738700
C          -5.31582700     -0.89905200      0.75402000
C          -5.21371400     -1.08146700      2.27579400
C          -4.24289200     -2.18029100      2.73128400
C          -4.64668100     -3.60249900      2.32504100
H          -4.02827900     -0.88590100     -0.82793500
H          -2.71705300      1.00133800     -0.32582900
H          -3.54936900      1.16193800      1.23296400
H          -4.43497900      1.51040200     -0.27486800
H          -6.08872200     -0.12777300      0.53390700
H          -5.67998400     -1.83525100      0.29853400
H          -6.22634400     -1.28282400      2.67296200
H          -4.89422800     -0.12548000      2.73020100
H          -3.24423500     -1.95001700      2.32371600
H          -4.15835000     -2.13211500      3.83177500
H          -4.60908100     -3.74755100      1.23189400
H          -5.67227500     -3.84247100      2.65920100
H          -3.97195500     -4.34841400      2.77540600
