20
b3lypvdz=-328.125287439923 
O          -3.02438600      1.00090900     -1.10220300
N          -1.14690800     -0.22384000     -0.40961300
C          -3.61710500      1.10536700      0.18214500
C          -2.29932600     -0.19824900     -1.30526600
C          -1.96735000     -0.26734100     -2.81193300
C          -3.21329100     -0.11162500     -3.69250400
C          -1.22254800     -1.56705300     -3.14843900
H          -0.39417100      0.35297300     -0.79433100
H          -0.77653800     -1.16887600     -0.31173100
H          -2.86134100      1.01674100      0.98077500
H          -4.38691100      0.32218100      0.33808100
H          -4.10417200      2.09077600      0.23017400
H          -2.93676900     -1.06870500     -1.03160700
H          -1.29397200      0.58903600     -3.01555900
H          -3.91646000     -0.94935100     -3.53427400
H          -2.93337300     -0.10969800     -4.75977800
H          -3.74763900      0.82179800     -3.46661400
H          -1.86504200     -2.44698700     -2.96318500
H          -0.93107000     -1.58967200     -4.21108500
H          -0.30482800     -1.68718400     -2.55195300
