12
b3lypvdz=-248.351250415713 
O          -3.10762700     -2.31324000     -0.83868700
N          -0.89371200     -0.42969500     -0.39877100
C          -2.10808000     -0.15078600     -1.17777900
C          -3.16612500     -1.12149400     -0.64298100
C          -1.96052200     -0.29531800     -2.70061900
H          -0.12567700      0.14142300     -0.75939000
H          -0.62376100     -1.40228100     -0.57498200
H          -2.43623100      0.87487400     -0.93091200
H          -3.99706100     -0.67573200     -0.03603600
H          -2.89673400     -0.05458100     -3.23422200
H          -1.68047900     -1.33027300     -2.95716000
H          -1.17779000      0.38440300     -3.07556100
