19
b3lypvdz=-273.741011527028 
C           2.54414000      0.40911400      0.13052400
C           5.59942500     -1.57932300      0.50837700
C           6.79263600     -0.66374200      0.47678400
C           8.02598800     -1.01890100      0.10263900
C           1.39977700     -0.55985300      0.21517100
C           4.45880500     -1.18326500     -0.46413900
C           3.82906500      0.15184300     -0.16104900
H           2.27592300      1.45438600      0.33155300
H           5.92560500     -2.60747900      0.27583200
H           5.18207200     -1.59347900      1.53302000
H           6.61751500      0.37034600      0.79826200
H           8.25699200     -2.03983900     -0.21941600
H           8.85247100     -0.30287900      0.10157100
H           0.58682500     -0.26211500     -0.47030000
H           1.68623000     -1.59235000     -0.03171500
H           0.96148900     -0.56129300      1.22961700
H           3.69842400     -1.98045600     -0.44695500
H           4.87764000     -1.16573100     -1.48840200
H           4.50977800      1.01141600     -0.18827500
