14
b3lypvdz=-249.555662876124 
O          -3.58126100      1.59875300      1.28652400
N          -3.96658500     -0.43212600      0.17709500
C          -5.04552000      1.75909500     -0.56231000
C          -3.84042000      1.01552500      0.01622900
C          -5.22484700     -0.89943200      0.76168500
H          -2.90460500      1.03285000      1.69189000
H          -3.79556000     -0.89432900     -0.71691600
H          -5.89215400      1.73547200      0.14050800
H          -4.78575100      2.81249800     -0.74963300
H          -5.36022200      1.30326300     -1.51555800
H          -2.97679600      1.15910400     -0.66678200
H          -6.11324300     -0.80175800      0.10473500
H          -5.41592900     -0.31993400      1.67789000
H          -5.12420700     -1.95838100      1.04864300
