16
b3lypvdz=-362.869984422183 
O          -2.30220100      1.40591000     -0.88513800
O           0.38640600      0.57324400     -1.51259500
N          -1.17897700     -0.65572800     -0.42589100
C          -2.25007600      0.02727400     -1.14522400
C           0.11114200     -0.24796500     -0.63923100
C           1.17711400     -0.87889800      0.24362600
C           2.35894300     -1.38433700     -0.59075100
H          -1.48505400      1.76106700     -1.27781800
H          -1.39421200     -1.09509400      0.46222300
H          -3.20542900     -0.40785600     -0.81989700
H          -2.10709700     -0.18067100     -2.22089700
H           1.52434000     -0.09393900      0.93946100
H           0.74856700     -1.69121100      0.85430500
H           3.14788500     -1.79976200      0.05512000
H           2.03721100     -2.17291300     -1.29070000
H           2.77913800     -0.55922200     -1.18469300
