16
b3lypvdz=-325.747767582157 
O          -7.47959200     -0.29554700      1.17378500
N          -6.25547600      1.25577000      0.03218100
C          -5.00922700      1.71184400     -0.58612600
C          -5.10669300      3.23692000     -0.45349400
C          -7.29852300      2.29035100      0.03396500
C          -6.61421000      3.50903700     -0.62075600
C          -6.44199000      0.05220200      0.63242200
H          -4.13681100      1.28094900     -0.07235100
H          -4.95588100      1.41422200     -1.65177400
H          -4.77352300      3.54265300      0.55246000
H          -4.48739200      3.76778100     -1.19128200
H          -8.18792800      1.95107400     -0.52102800
H          -7.62142800      2.48738900      1.06981800
H          -6.93043500      4.45557200     -0.15869800
H          -6.87277600      3.56426400     -1.69124400
H          -5.53041700     -0.59418200      0.58562200
