18
b3lypvdz=-326.959333074132 
O          -7.17279200      0.20391000      1.97166200
N          -6.14337400      1.49232500      0.42218500
C          -4.95239100      1.98312200     -0.26879500
C          -5.09983900     -0.65024800      1.07744000
C          -5.31390500      3.17638300     -1.15038400
C          -6.22201200      0.37333400      1.21835300
C          -5.20993900     -1.77623200      2.10104500
H          -6.85677800      2.18204800      0.64760000
H          -4.15661800      2.27758000      0.44493800
H          -4.53605400      1.17540600     -0.89312800
H          -4.12484800     -0.13594200      1.14893600
H          -5.14472200     -1.05032400      0.04550800
H          -6.06041700      2.88557300     -1.90739100
H          -5.74148600      3.99698900     -0.54813700
H          -4.42340200      3.56893900     -1.66564100
H          -4.46619900     -2.56453400      1.90479300
H          -6.21451800     -2.22343100      2.07262400
H          -5.05210500     -1.39099600      3.12149100
