9
b3lypvdz=-209.108491948631 
N          -0.90868100     -0.41634000     -0.43817800
C           0.28914900      0.23262200     -0.59905200
C           1.48229400     -0.41206700      0.09668300
O           0.39212300      1.26487500     -1.24073100
H          -1.70139800     -0.07319900     -0.96986400
H          -0.96686200     -1.34228400     -0.03594300
H           2.20373400     -0.73170900     -0.67169600
H           1.98118900      0.35209300      0.71192400
H           1.22565300     -1.27439100      0.73005700
