6
b3lypvdz=-169.813872610635 
N          -0.90082000     -0.40616300     -0.41576800
C           0.27291100      0.25998200     -0.61001200
O           0.40448700      1.27319400     -1.26489900
H          -1.74360700     -0.05542700     -0.85955000
H          -0.94109700     -1.27020500      0.10906400
H           1.12502800     -0.24918100     -0.09053500
