11
b3lypvdz=-210.266952822753 
O          -3.60949000      1.55809500      1.31095800
C          -4.99903200      1.70834300     -0.60835400
C          -3.74981400      1.07029300     -0.02416200
N          -6.17729700      1.26966400      0.14099500
H          -2.90598000      1.05492200      1.74345300
H          -4.84025700      2.80985000     -0.62074000
H          -5.10018800      1.38017700     -1.65848300
H          -2.87262500      1.33681100     -0.64820500
H          -3.86888100     -0.03150400     -0.03717300
H          -6.99655500      1.79287800     -0.17664400
H          -6.03978200      1.55177200      1.11585400
