16
b3lypvdz=-362.853472261091 
O          -2.87629800      1.08303600     -1.06196200
O           0.50592300      0.94481600     -1.60927100
N          -1.01088400     -0.33308900     -0.48197500
C          -3.61870000      0.95794100      0.13404000
C          -2.11347800     -0.05788900     -1.38095500
C           0.26185800      0.14743700     -0.72016800
C           1.34648700     -0.40761300      0.19106900
H          -1.12844600     -1.04718300      0.22585200
H          -2.96068600      0.85628400      1.01822200
H          -4.30936900      0.08854500      0.10189400
H          -4.21694300      1.87482300      0.23951800
H          -2.76133100     -0.95688100     -1.40274800
H          -1.69376300      0.14565200     -2.37503300
H           2.01705700     -1.04092700     -0.41289000
H           1.94681900      0.42834500      0.57878700
H           0.95855500     -0.99929800      1.03442100
