12
b3lypvdz=-248.375509996085 
O          -7.48326500     -0.29172400      1.11805000
N          -6.25298700      1.31648400      0.02541600
C          -4.97276100      1.69894100     -0.53213300
C          -7.32692300      2.29354900      0.01542900
C          -6.45188700      0.08814400      0.59216100
H          -4.27059100      0.85558900     -0.44701000
H          -4.54371200      2.56455800      0.00412200
H          -5.06426500      1.97369400     -1.59940200
H          -7.56526200      2.60660600     -1.01689200
H          -8.21023000      1.82802700      0.47112600
H          -7.04908500      3.19287900      0.59387300
H          -5.54093200     -0.55454800      0.51716100
