22
b3lypvdz=-292.213261299842 
N          -4.21558300     -0.66258700      0.03179000
C          -4.81823900      1.76074200     -0.51402000
C          -3.79983900      0.74147100      0.01847900
C          -5.39455500     -0.99628300      0.83743900
C          -5.11765900     -1.13424700      2.34260600
C          -4.15731100     -2.26596100      2.75136800
C          -2.66959200     -1.91954100      2.64412600
H          -4.37448300     -0.96894000     -0.92828500
H          -5.70963200      1.83767800      0.12758500
H          -4.36277200      2.76412100     -0.57012900
H          -5.16040000      1.48825500     -1.52810300
H          -2.88344100      0.79723100     -0.59349700
H          -3.49262900      1.02579300      1.04024800
H          -6.22843900     -0.27429800      0.69956400
H          -5.77254100     -1.96519000      0.46758100
H          -6.09718200     -1.30934800      2.82360200
H          -4.75372200     -0.17334100      2.75253600
H          -4.37944300     -3.16002000      2.13931100
H          -4.38271400     -2.55609200      3.79354800
H          -2.03713600     -2.76103900      2.97331200
H          -2.40306400     -1.65643100      1.61008100
H          -2.42132400     -1.05697300      3.28795800
