16
b3lypvdz=-288.568368909205 
C           2.66135200      0.52854600      0.28367800
C           5.06125000      1.18699600     -0.08971500
C           6.34506900      0.50315500      0.14451600
C           7.57209900      1.06708900      0.08947100
C           4.90504800      2.52722500     -0.20028500
N           8.78258200      0.41386100      0.26835800
C           3.88507200      0.28948800     -0.20817000
H           1.84331500     -0.18185300      0.13658600
H           2.44160200      1.43856600      0.84953400
H           6.27795900     -0.56361700      0.39332400
H           7.68488500      2.12057900     -0.18878500
H           5.73637800      3.22526300     -0.07290400
H           3.93262900      2.95691800     -0.44510200
H           8.73462800     -0.47859400      0.75289500
H           9.54684800      0.99033800      0.60452800
H           4.06848700     -0.66175900     -0.72602900
