11
b3lypvdz=-173.136396148056 
N           3.14468800     -2.14234300     -0.03943400
C           5.01452200      1.06927000     -0.02168200
C           4.31479500     -1.33257000     -0.41002400
C           4.07145300      0.12702400     -0.09125300
H           2.37910900     -1.93479100     -0.68754900
H           3.35677800     -3.13085800     -0.19199900
H           6.07382900      0.83574700     -0.18249800
H           4.76081100      2.10894200      0.20270100
H           5.17601300     -1.69582800      0.17700000
H           4.61239100     -1.42434900     -1.48006500
H           3.02501200      0.40515500      0.09210200
