12
b3lypvdz=-248.381507465392 
O          -7.52291900     -0.25726500      1.21853800
N          -6.22068600      1.20632200      0.04824200
C          -7.21806300      2.27125000     -0.01751400
C          -6.62191900      3.54255600     -0.61118000
C          -6.46449300      0.02985700      0.68691700
H          -5.29085900      1.37399800     -0.31931700
H          -8.07957900      1.92530000     -0.61532900
H          -7.60607500      2.46072000      0.99790600
H          -5.77056500      3.90258000     -0.00970000
H          -7.37972500      4.34101800     -0.63287100
H          -6.26752700      3.38197500     -1.64397400
H          -5.57839000     -0.65341200      0.67218400
