9
b3lypvdz=-154.93412212517 
O          -2.65179500      1.12085200     -0.86570100
C          -3.75763500      1.03890500      0.00732600
C          -2.13499500     -0.15417300     -1.18192800
H          -3.48233600      0.56130700      0.97261700
H          -4.59471500      0.46394000     -0.44389600
H          -4.09988600      2.06665200      0.20478300
H          -1.76858800     -0.68480500     -0.27686400
H          -2.89515300     -0.79043900     -1.68428000
H          -1.28859600     -0.00363900     -1.86925900
