15
b3lypvdz=-324.764156094635 
O          -2.73466000      1.15468800     -0.86050100
O          -3.61621600      1.48894900      1.28771200
N          -4.03825100     -0.47177600      0.11347400
C          -4.98915000      1.77946700     -0.60984700
C          -3.84096700      0.97243300     -0.00803100
C          -5.24730900     -0.89402800      0.82167500
H          -2.05096200      0.53664200     -0.55179200
H          -2.99793000      0.87305000      1.71473100
H          -4.02268100     -0.87020000     -0.82669400
H          -5.87114600      1.73640500      0.04337300
H          -4.67841400      2.82875400     -0.71490100
H          -5.24821000      1.38567500     -1.60377000
H          -6.19055900     -0.69024200      0.27584200
H          -5.29378100     -0.36623200      1.78532100
H          -5.19476500     -1.97478600      1.02680800
