17
b3lypvdz=-288.851931524399 
O          -3.70400800      1.44207800      1.44392600
N          -3.77004100     -0.42056000      0.04151500
C          -5.19226600      1.62981400     -0.38744000
C          -3.86602200      1.03478500      0.09600200
C          -5.22086000      3.16044100     -0.42871200
C          -6.59704000      3.71812200     -0.79972800
H          -2.95035700      0.93280000      1.78134400
H          -4.64622800     -0.82956800      0.38088000
H          -3.66610000     -0.73229100     -0.92693700
H          -5.98387400      1.25756700      0.28968800
H          -5.41392700      1.22021100     -1.39060600
H          -3.04020700      1.42276200     -0.53886700
H          -4.90500200      3.54313300      0.55585100
H          -4.46611800      3.51862000     -1.15360400
H          -7.36715300      3.38685000     -0.08265400
H          -6.60477600      4.82058300     -0.80805400
H          -6.91412200      3.37345200     -1.79970500
