17
b3lypvdz=-343.000455432473 
O          -7.36508300      0.11490300      1.69918900
N          -4.04332500     -0.17247900      0.28460100
N          -6.27241300      1.27437100      0.06198900
C          -5.23143000     -0.75502500      0.93386100
C          -7.33951500      2.21708200     -0.19687800
C          -6.40047700      0.25722400      0.95536500
C          -4.99749600     -1.34827600      2.32628200
H          -3.51492500      0.37691600      0.96842300
H          -3.41163300     -0.91630000     -0.01611100
H          -5.44405800      1.23224200     -0.52543300
H          -5.58601500     -1.56226700      0.26551400
H          -6.91864400      3.18918200     -0.49567400
H          -8.01953700      1.86424300     -0.99524500
H          -7.93567700      2.33974300      0.71837200
H          -4.28655100     -2.18873200      2.27778700
H          -5.94755100     -1.69992000      2.75321400
H          -4.58557000     -0.58450800      3.00874400
