17
b3lypvdz=-197.618328972061 
C          -5.14900100     -0.92221800      0.86710100
C          -5.07495000     -1.13458800      2.38534800
C          -4.24657200     -2.34531900      2.87259800
C          -4.75918400     -3.68603100      2.32566100
C          -2.74406700     -2.18093400      2.59395800
H          -4.15135300     -0.78280400      0.41854800
H          -5.74253500     -0.02208300      0.63452000
H          -5.63448100     -1.77005800      0.35673900
H          -6.10395200     -1.23715800      2.77773700
H          -4.66386300     -0.22188500      2.85458300
H          -4.37242900     -2.37642500      3.97247100
H          -4.58840500     -3.77676600      1.23853500
H          -5.84018300     -3.81030900      2.51273200
H          -4.23690600     -4.52760900      2.81073500
H          -2.16561400     -2.99691000      3.05875800
H          -2.52495000     -2.19834800      1.51183400
H          -2.36105500     -1.22995600      3.00264000
