20
b3lypvdz=-328.127882390084 
O          -2.74328800      1.15512400     -1.17325300
N          -1.33659200     -0.52604100     -0.34497900
C          -5.02606700      1.47044200     -0.38934200
C          -3.55471000      1.34723000     -0.00967400
C          -2.29627600     -0.16991400     -1.38604200
C          -1.76594000     -0.20076100     -2.82661600
C          -1.24246100     -1.56915000     -3.26255600
H          -0.45309800     -0.03773000     -0.51910200
H          -1.12981400     -1.52615900     -0.36933900
H          -5.63998300      1.71140900      0.49553100
H          -5.16451700      2.27202000     -1.13259600
H          -5.41294900      0.53517300     -0.82849700
H          -3.20600800      2.28161300      0.46359600
H          -3.37687800      0.53408800      0.71369000
H          -3.13788900     -0.89118200     -1.29428500
H          -2.57809900      0.13325000     -3.49475800
H          -0.96797100      0.56069800     -2.90918600
H          -2.03689100     -2.33545100     -3.22613400
H          -0.85390900     -1.53605000     -4.29312300
H          -0.41666000     -1.91121000     -2.61603500
