13
b3lypvdz=-174.360309999941 
N           3.15176500     -2.16783600     -0.03521900
C           4.30640900     -1.32722200     -0.33743700
C           1.91854400     -1.70393800     -0.65991500
C           5.56317700     -1.83934400      0.36272200
H           3.34845600     -3.11522600     -0.36754600
H           4.07553000     -0.30680300      0.02039400
H           4.50145200     -1.23580700     -1.43338500
H           1.65015300     -0.71633800     -0.24671400
H           1.09641900     -2.39699400     -0.41885200
H           1.96458500     -1.59833800     -1.76942500
H           6.42405800     -1.18344400      0.15434400
H           5.82680500     -2.85380400      0.01382400
H           5.40974600     -1.88560700      1.45330900
