20
b3lypvdz=-328.129544980464 
O          -2.84166500      1.36809800     -0.33315500
N          -4.32535100     -0.41742300      0.01185900
C          -5.12842800      1.83043200     -0.77401700
C          -4.15316700      1.02764600      0.08961000
C          -5.28591000     -1.00319900      0.95542500
C          -4.93194000      3.34523700     -0.69221400
C          -4.63344700     -1.34009600      2.29944300
H          -2.26926500      0.67771900      0.03680700
H          -4.55988100     -0.67957900     -0.94648400
H          -6.15584100      1.56746300     -0.46274700
H          -5.00631000      1.49126200     -1.81996900
H          -4.30625400      1.30664200      1.15462900
H          -6.16735300     -0.34726500      1.12032200
H          -5.68185600     -1.92746200      0.50320800
H          -5.62978500      3.87505600     -1.35964300
H          -5.10696400      3.71710900      0.33253600
H          -3.90529800      3.61819200     -0.97902100
H          -3.80640500     -2.05461900      2.15938200
H          -5.36749900     -1.78372500      2.99313200
H          -4.21738300     -0.43968700      2.78259800
