6
b3lypvdz=-78.53306735085 
C           2.67547700      0.53280300      0.15635100
C           3.93712300      0.14739700     -0.04585100
H           1.84801100     -0.18337900      0.12388400
H           2.42440500      1.57693600      0.36892400
H           4.18819500     -0.89673600     -0.25842400
H           4.76458900      0.86357900     -0.01338400
