15
b3lypvdz=-250.4946448612 
C           5.22369100      0.99029300     -0.18847000
C           5.06055700      2.43740700     -0.15690000
N           3.01299000     -1.99900700     -0.09588000
C           6.06417100      3.32593200     -0.07085300
C           4.31934600     -1.38257000     -0.36811800
C           4.20552900      0.12197900     -0.31791500
H           6.25137900      0.61244600     -0.09772600
H           4.02759600      2.80458300     -0.20905700
H           2.40659900     -1.85802200     -0.90929500
H           3.12436200     -3.01278600     -0.02629800
H           7.10867000      3.00124500     -0.01739400
H           5.87214900      4.40151900     -0.04799900
H           5.03225300     -1.72536700      0.40235700
H           4.76911200     -1.68070900     -1.34390700
H           3.18529700      0.51815600     -0.40574500
