16
b3lypvdz=-267.756535521639 
C           5.42878700     -1.57639100      0.65407700
C           6.46761700     -0.49102000      0.61050400
C           7.74176000     -0.69252900      0.23294700
N           3.34132100     -2.49467200     -0.27776600
N           8.72571300      0.28481900      0.03471700
C           4.31381900     -1.40162800     -0.38699300
H           5.91930200     -2.55470200      0.49032100
H           4.94865600     -1.63255500      1.64858800
H           6.14442600      0.52646800      0.87204400
H           8.07840200     -1.70504300     -0.02422300
H           2.58144200     -2.34697200     -0.94558300
H           3.78700900     -3.36797900     -0.57411800
H           8.49181700      1.18066400      0.46088300
H           9.64965800     -0.00785600      0.34847600
H           3.77910400     -0.45469600     -0.18988600
H           4.78036700     -1.29460900     -1.39088900
