12
b3lypvdz=-248.351115609862 
O           0.14790400      1.31284400     -1.08301800
N           3.07849200     -2.25533400      0.01002700
C           0.26572700      0.22760900     -0.56183200
C           1.54781400     -0.33486900      0.00086900
C           1.96592600     -1.63150700     -0.70852300
H           3.91403200     -1.67206300     -0.08470000
H           3.32144600     -3.14013700     -0.44222800
H          -0.62040500     -0.45760400     -0.46446000
H           2.33642600      0.43169800     -0.08280300
H           1.39145600     -0.58129000      1.06754000
H           1.11629000     -2.33862000     -0.69331400
H           2.17559300     -1.40122600     -1.77565900
