15
b3lypvdz=-287.680646150839 
O          -3.53696800     -2.09799800     -1.16206700
N          -3.96874400     -0.53988500      0.43215800
C          -2.27531200     -0.03009000     -1.25227100
C          -3.32074700     -0.99300800     -0.68665300
C          -1.92879100     -0.30262800     -2.71890500
C          -3.07440400     -0.00716600     -3.69044900
H          -3.86011400      0.40828600      0.76644200
H          -4.69377000     -1.12022100      0.83761500
H          -2.61690600      1.01342600     -1.11647300
H          -1.37072600     -0.14362400     -0.62603400
H          -1.63521700     -1.36071700     -2.81342600
H          -1.04847200      0.30593100     -2.98892600
H          -3.94914300     -0.63880200     -3.46898300
H          -2.76862600     -0.21083900     -4.73052800
H          -3.39165900      1.05043700     -3.63810000
