14
b3lypvdz=-249.555450597284 
O          -3.68370000      1.44147600      1.37261400
N          -6.18270300      1.16044400      0.18261600
C          -5.05816700      1.75226700     -0.55059900
C          -3.76983200      1.12314300     -0.01714700
C          -4.99372700      3.28615500     -0.50615500
H          -2.94336700      0.94904900      1.75226800
H          -7.04293200      1.65921200     -0.05797200
H          -6.03124100      1.34185100      1.17926500
H          -5.15414900      1.43564700     -1.60696600
H          -2.90147500      1.52499000     -0.57575000
H          -3.81569900      0.02936900     -0.17717200
H          -5.94572500      3.72616100     -0.84796600
H          -4.79186300      3.63531700      0.51934900
H          -4.19742000      3.67882100     -1.16138600
