18
b3lypvdz=-326.960743859711 
O           0.16330400      1.38472000     -0.98591500
N          -0.80092800     -0.64173800     -0.66854200
C          -2.08191100     -0.24138100     -1.24487700
C          -2.04563700     -0.13229300     -2.77116900
C           0.25715600      0.22293600     -0.60364600
C           1.54702700     -0.33630000      0.00495300
C           1.93742100     -1.76270900     -0.41186600
H          -0.67130300     -1.60571300     -0.39068700
H          -2.36253400      0.73114300     -0.81135200
H          -2.83251400     -0.98007700     -0.92074300
H          -3.03892300      0.14257400     -3.16450200
H          -1.73851400     -1.08549200     -3.23459500
H          -1.32887100      0.64597600     -3.07143900
H           2.33378300      0.38174200     -0.27058100
H           1.44795800     -0.28832900      1.10553900
H           2.88393800     -2.05978300      0.06721000
H           1.18741300     -2.51441700     -0.10861100
H           2.07003400     -1.84576100     -1.50317600
