16
b3lypvdz=-234.466804265231 
C           2.73034600      0.48869300      0.13668400
C           5.14855800      1.01615600      0.19321000
C           6.43485400      0.68947200     -0.01464700
C           1.51456800     -0.36585900     -0.08901500
C           1.76846200     -1.80699300     -0.53109600
C           4.01552900      0.13152600     -0.04580700
H           2.52490000      1.50763500      0.49199800
H           4.90597200      2.01612500      0.57450900
H           6.71820000     -0.29832100     -0.39142400
H           7.24326400      1.39722800      0.18082300
H           0.85856700      0.14516900     -0.82157500
H           0.91958600     -0.36556100      0.84615300
H           2.36435700     -2.35799000      0.21516500
H           0.81781000     -2.34647600     -0.66473100
H           2.31472200     -1.84856200     -1.48843000
H           4.25600400     -0.87474200     -0.40671700
