19
b3lypvdz=-252.930391867301 
N          -4.16396800     -0.57520900      0.13484000
C          -4.87169900      1.76998800     -0.59959500
C          -3.85485500      0.85383800      0.10304300
C          -5.37890000     -0.96935900      0.85709300
C          -5.14171100     -1.09567500      2.36819900
C          -4.09310900     -2.14725300      2.72910000
H          -4.20242900     -0.92887500     -0.82045400
H          -5.83543500      1.81565800     -0.06713400
H          -4.48116100      2.79985800     -0.66903600
H          -5.07752300      1.41684700     -1.62611600
H          -2.87260400      0.95919100     -0.39001100
H          -3.70504700      1.19724800      1.14239000
H          -6.23335900     -0.28206600      0.67800400
H          -5.68963700     -1.95372300      0.46450700
H          -6.10610700     -1.32839900      2.85574100
H          -4.82685000     -0.11330700      2.76846800
H          -4.41194300     -3.15169200      2.39470200
H          -3.13997100     -1.91781100      2.22796600
H          -3.91849400     -2.19566000      3.81649300
