19
b3lypvdz=-347.998134285443 
O          -3.12087600      0.97109300     -1.08833700
O          -3.12322200      2.17021500      0.89950400
C          -5.20179500      1.61881400     -0.06999400
C          -3.77274500      1.16185000      0.16217100
C          -2.67112000     -0.35189500     -1.36640000
C          -1.88816000     -0.33805700     -2.67431000
C          -2.73411800      0.03165800     -3.89751200
H          -2.19122400      1.91201200      0.96805300
H          -5.69455900      1.86853900      0.88230800
H          -5.19622000      2.51559100     -0.70986300
H          -5.77506900      0.82858200     -0.57927700
H          -3.74859600      0.19910400      0.72020400
H          -2.02679000     -0.72257800     -0.54234400
H          -3.53422600     -1.04683100     -1.44993500
H          -1.43659500     -1.33672300     -2.81573700
H          -1.05229300      0.37639200     -2.56490600
H          -3.55041700     -0.69432300     -4.05666300
H          -2.11838300      0.04634500     -4.81251200
H          -3.18989300      1.02651100     -3.77175000
