17
b3lypvdz=-251.705386978834 
C           2.79786900      0.52189700      0.38847600
C           5.46340400     -1.73176300      0.46860600
C           3.36545200     -3.62799100     -0.58042700
N           3.14495100     -2.22488800     -0.25390100
C           4.29566800     -1.34462700     -0.45578500
C           3.90794700      0.09921800     -0.22381000
H           2.06447600     -0.18434400      0.78386000
H           2.59389600      1.58751000      0.52424800
H           6.28955900     -1.00999900      0.36745800
H           5.86197500     -2.72665600      0.21606000
H           5.12214800     -1.73802100      1.51684800
H           3.82204600     -3.80669700     -1.58164000
H           4.02404100     -4.10542200      0.16247700
H           2.40248400     -4.16023000     -0.54445100
H           2.38609200     -1.87241300     -0.83972800
H           4.68911000     -1.40915900     -1.50163100
H           4.63878500      0.82988600     -0.59166100
