11
b3lypvdz=-268.220598224281 
O          -2.57902000      1.19644500     -0.89690300
O          -3.04259400     -2.34829800     -0.79384200
C          -2.14075200     -0.12959100     -1.16726000
C          -3.14516100     -1.15589800     -0.63569500
C          -1.96435300     -0.27510700     -2.67461400
H          -2.45979500      1.37199200      0.04758300
H          -1.17426600     -0.34845900     -0.66603700
H          -4.00937500     -0.69939500     -0.07666600
H          -2.90783300     -0.03680300     -3.19248800
H          -1.67740700     -1.30782400     -2.92133300
H          -1.19064600      0.41773800     -3.03544500
