13
b3lypvdz=-195.176585503475 
C           2.64540700      0.54176700      0.15330300
C           5.08458100      1.12917900     -0.04153900
C           5.06308300      2.46387900     -0.18697300
C           1.49533300     -0.41909400      0.10148100
C           3.93087400      0.21635300     -0.06894500
H           2.39307200      1.57821300      0.41264100
H           6.05723300      0.64254500      0.10074900
H           5.98264700      3.05124200     -0.13062600
H           4.13482900      3.01264800     -0.37375200
H           0.74420400     -0.10001000     -0.64404600
H           1.82694400     -1.43716500     -0.15892800
H           0.96803000     -0.46342900      1.07229100
H           4.16846300     -0.83462900     -0.27875400
