16
b3lypvdz=-213.644302099206 
N          -4.00812200     -0.54260100      0.17196000
C          -3.74705600      0.88914800      0.13466300
C          -5.27583300     -0.90277800      0.81417900
C          -5.13468600     -1.06181600      2.33409900
C          -4.18277900     -2.18969900      2.73104900
H          -4.00250700     -0.90358500     -0.78100000
H          -2.80576000      1.08346400     -0.40386300
H          -3.62305100      1.27734600      1.15957000
H          -4.55018400      1.49296200     -0.34755900
H          -6.08130700     -0.16704400      0.59087000
H          -5.60892900     -1.86728500      0.39154800
H          -6.13710200     -1.23689700      2.76514400
H          -4.77739800     -0.10933000      2.76805900
H          -4.55090200     -3.16401000      2.36107900
H          -3.18941000     -2.02097500      2.28708100
H          -4.07287500     -2.26700000      3.82502200
