20
b3lypvdz=-328.120234206524 
O          -2.54398700      1.06826900     -0.61892000
N          -4.11283200     -0.55410500      0.06087100
C          -3.81018000      0.86275400     -0.03416800
C          -5.29698700     -0.87373900      0.87045400
C          -5.01373100     -1.05939000      2.36958300
C          -4.17779400     -2.29759400      2.74245800
C          -2.66377100     -2.12765500      2.59016300
H          -1.93270300      0.48897700     -0.13517300
H          -4.22290500     -0.93323600     -0.87994000
H          -3.87441600      1.29184600      0.98582400
H          -4.51842900      1.42528500     -0.67574900
H          -6.09769500     -0.11213300      0.74516900
H          -5.72026500     -1.81645400      0.48319900
H          -5.99601700     -1.13463800      2.86938300
H          -4.53815100     -0.15163000      2.78388100
H          -4.52174700     -3.15630200      2.13594900
H          -4.40011200     -2.56710000      3.79068600
H          -2.12784800     -3.04723400      2.88085800
H          -2.39797200     -1.87679300      1.55271300
H          -2.29206000     -1.31643000      3.24016100
