18
b3lypvdz=-289.773103345644 
C           2.73349100      0.55561000      0.05807800
C           5.48924400     -1.44247700      0.70875200
C           6.71406300     -0.64552500      0.35863600
C           7.91891900     -1.16281300      0.09619800
N           3.24823000     -2.21954400      0.12210000
C           4.34168400     -1.35426000     -0.33319900
C           3.84678500      0.06729800     -0.49811600
H           2.09309300     -0.08235400      0.67190400
H           2.43328100      1.59602500     -0.08914500
H           5.76548600     -2.50521400      0.83379800
H           5.07608300     -1.09364400      1.67220700
H           6.58903200      0.44434300      0.32621100
H           8.09663600     -2.24376900      0.12010300
H           8.77410300     -0.52620300     -0.14504500
H           2.51756600     -2.24062500     -0.59356400
H           3.58682900     -3.18014200      0.20896500
H           4.77622000     -1.67185400     -1.30774400
H           4.47535500      0.71934800     -1.11513900
