17
b3lypvdz=-305.82919254051 
C           5.15405300      0.77097000      0.14042200
C           6.53345300      0.31826000      0.08050600
C           7.58154000      1.17652300      0.07092900
N           2.81144400     -1.87077700     -0.77390600
N           8.92283500      0.84516600     -0.08758500
C           3.91010900     -1.47026800      0.11973800
C           4.02623300      0.02718700      0.15598000
H           5.02770400      1.86099900      0.18887600
H           6.73386500     -0.75955500      0.03659900
H           7.39889900      2.25714200      0.12718400
H           3.04621900     -1.61198300     -1.73575500
H           2.72291500     -2.88943700     -0.77268400
H           9.15163500     -0.12947900      0.09137500
H           9.57599600      1.46873900      0.37770500
H           3.63180300     -1.83633600      1.12882500
H           4.88999200     -1.93349800     -0.12416300
H           3.06070500      0.54284700      0.21345500
