16
b3lypvdz=-308.706425896452 
O          -3.24908400      1.03619100     -1.06791700
O          -2.78361600      1.64307100      1.16461500
C          -3.75358100      1.24298000      0.22734200
C          -2.52762000     -0.17714700     -1.24502100
C          -1.96484200     -0.20595600     -2.66003200
C          -3.03619500     -0.18705100     -3.75271300
H          -2.33022900      0.85385100      1.49267400
H          -4.29177100      0.33285200      0.57279800
H          -4.46182700      2.07895300      0.13868200
H          -1.69634100     -0.24707500     -0.51538000
H          -3.20404100     -1.04279200     -1.07082300
H          -1.33371500     -1.10711200     -2.76087600
H          -1.29593400      0.66440900     -2.77991100
H          -3.67544900     -1.08649200     -3.70915900
H          -2.57407300     -0.15234000     -4.75284200
H          -3.68968200      0.69195800     -3.64053700
