11
b3lypvdz=-173.140956210317 
C           2.64126100      0.56270000      0.14627500
N           3.16991000     -2.23118500     -0.07735300
C           4.28294400     -1.30608800     -0.28002000
C           3.85501000      0.13843200     -0.21554700
H           1.86618700     -0.14750100      0.44157400
H           2.39416500      1.62727300      0.17025600
H           2.56471000     -2.21264000     -0.90276400
H           3.52946800     -3.18601900     -0.02319100
H           5.02812300     -1.48728800      0.51882500
H           4.84342200     -1.45690400     -1.23131900
H           4.62750100      0.86441900     -0.49643600
