18
b3lypvdz=-326.923190114019 
O          -7.16688300      0.52423900      1.51856300
N          -4.13707100     -0.52898400      0.09336600
C          -5.29984500     -0.91372600      0.90253000
C          -6.38288700      0.14512900      0.67971500
C          -5.09365400     -1.20637800      2.39493200
C          -4.17452500     -2.39723400      2.72599500
C          -2.67184200     -2.08299800      2.76594000
H          -3.57809000      0.16921900      0.58947000
H          -3.52102300     -1.32800500     -0.05345900
H          -5.71614600     -1.82297000      0.41934800
H          -6.38974200      0.55136200     -0.36600200
H          -6.09079200     -1.37601700      2.83238000
H          -4.71477400     -0.29053900      2.88808100
H          -4.36894600     -3.21738600      2.00786200
H          -4.46824900     -2.79642000      3.71220400
H          -2.08639600     -2.97319900      3.04945300
H          -2.28812900     -1.72575700      1.79687600
H          -2.45630700     -1.29623600      3.50924500
