17
b3lypvdz=-272.530048005616 
C           2.60547500      0.53314400      0.09239700
C           5.07911100      1.01515200     -0.01748600
C           5.10581700      2.36502800     -0.12750200
C           7.58596300      2.85003500     -0.11725000
C           6.29272900      3.22159500     -0.12749600
C           1.43711900     -0.40128300      0.08501200
C           3.89595900      0.15569300     -0.01055900
H           2.36966200      1.59938400      0.20248500
H           6.03474300      0.48714300      0.07365600
H           4.15194000      2.89219400     -0.23498300
H           7.89623900      1.80136700     -0.11189700
H           8.38240000      3.59709300     -0.11897900
H           6.07671600      4.29657200     -0.14842600
H           0.74443800     -0.17336600     -0.74633500
H           1.75622600     -1.45149800     -0.01251100
H           0.83719800     -0.30533100      1.00885900
H           4.10046500     -0.91992300     -0.08678600
