9
b3lypvdz=-117.824411541881 
C           5.56585000     -1.84210600      0.38319200
C           6.61837900     -0.77580200      0.27659900
C           6.37550900      0.52663400      0.10491400
H           4.55189500     -1.41844400      0.29743900
H           5.69265600     -2.60330800     -0.40822300
H           5.63814000     -2.37391700      1.34972400
H           7.66068000     -1.11576500      0.34848000
H           5.35264600      0.91260500      0.02795000
H           7.19034500      1.25270300      0.03152400
