12
b3lypvdz=-248.38857308708 
O          -7.57283900     -0.32239300      1.01260800
N          -6.21409600      1.26389000      0.11431200
C          -5.23513200     -0.86832800      0.79325700
C          -7.25476300      2.27395400      0.05274800
C          -6.45472500      0.03133100      0.66408100
H          -5.25394300      1.55232100     -0.02739500
H          -4.39405700     -0.55896700      0.15449200
H          -4.89799300     -0.87266000      1.84324000
H          -5.53261800     -1.89539900      0.53800600
H          -7.01202300      3.00806800     -0.72918800
H          -8.20585200      1.78063800     -0.19113900
H          -7.38875800      2.80744500      1.01177900
