19
b3lypvdz=-344.155710004848 
O          -2.44104200      1.49877400     -0.43884000
N          -6.05205300      1.15391400      0.34474300
N          -1.67737600     -0.74183100     -0.55708900
C          -4.90769000      1.52405100     -0.49676800
C          -3.62999300      1.24098400      0.30881000
C          -5.01915500      2.99834300     -0.88177300
C          -2.04221000      0.44868300     -1.30229700
H          -6.92025000      1.32069700     -0.16998600
H          -6.03726300      0.14817900      0.53286800
H          -0.74278100     -0.64978900     -0.15525500
H          -1.66762800     -1.55999000     -1.16729500
H          -4.85257000      0.92468700     -1.43229200
H          -3.59750600      1.90499000      1.18674200
H          -3.62337700      0.19787600      0.67161100
H          -5.85860300      3.17014900     -1.57742700
H          -5.19415900      3.60894100      0.02010200
H          -4.09317200      3.33860700     -1.36966100
H          -2.85037400      0.16070300     -2.00293900
H          -1.22169700      0.89783300     -1.89555300
