16
b3lypvdz=-362.840153453403 
O          -2.62072200      1.55737000     -0.56648900
O          -7.61468900     -0.25771600      1.05716300
N          -6.23813500      1.29582200      0.06495400
C          -4.96384900      1.61209400     -0.56827700
C          -3.73997500      0.91366400      0.02171300
C          -7.27365400      2.31861700      0.02639600
C          -6.54323800      0.06060200      0.56784200
H          -1.82072600      1.12775000     -0.23227300
H          -4.78981500      2.69382700     -0.44089100
H          -4.99302300      1.41846700     -1.65894400
H          -3.75349300      1.02011300      1.12579600
H          -3.74492300     -0.16833300     -0.21540700
H          -7.48053200      2.63056400     -1.01239600
H          -8.18190500      1.89474200      0.47116300
H          -6.96401800      3.20891700      0.60044300
H          -5.69170300     -0.65250000      0.49070700
