11
b3lypvdz=-210.265043691669 
O          -2.55768300      1.20269900     -0.70375800
C          -3.80792400      0.94903700     -0.10510000
C          -5.15492200     -0.84500500      0.85519700
N          -4.07006200     -0.47497900     -0.04442600
H          -1.93567100      0.59705600     -0.26752500
H          -3.86420700      1.33304000      0.93568600
H          -4.54018700      1.52343700     -0.70892500
H          -6.12540400     -0.34379600      0.64261400
H          -4.87502400     -0.60007000      1.89467100
H          -5.32203100     -1.93261200      0.80608000
H          -4.25008500     -0.83170700     -0.98451400
