16
b3lypvdz=-234.462591526236 
C           2.69011100      0.46545200      0.24236500
C           5.06220300      1.09814100     -0.07563800
C           4.98433600      2.43450200     -0.17021400
C           1.44996900     -0.38353900      0.22994100
C           4.36031800     -1.27254300     -0.52512300
C           3.94773700      0.12205700     -0.10511200
H           2.51925900      1.49069700      0.59388200
H           6.06377400      0.65533800      0.00619800
H           5.88634000      3.05046000     -0.12231000
H           4.03312800      2.95930200     -0.30272900
H           0.67346700      0.08327800     -0.40426100
H           1.61578100     -1.40488700     -0.14351100
H           1.02121400     -0.45764000      1.24700900
H           3.52687900     -1.98889400     -0.52676600
H           5.13697200     -1.66538200      0.15544600
H           4.80131100     -1.26314300     -1.53877600
