18
b3lypvdz=-364.051609863939 
O          -3.12548800      0.83713600     -1.29535600
O          -3.16981500      1.37063500      0.99490000
N          -1.19474900     -0.09398800     -0.30529700
C          -5.03306900      1.89612700     -0.36420400
C          -3.91254900      0.91555600     -0.09969200
C          -2.23292400     -0.25122600     -1.34180500
C          -1.70337000     -0.32667000     -2.77004100
H          -2.36985600      0.80562100      1.00404500
H          -0.54890100      0.65048900     -0.58773000
H          -0.63952900     -0.95077500     -0.24199900
H          -5.65636700      2.00288200      0.53598100
H          -4.60135800      2.87893800     -0.61041200
H          -5.65818600      1.55768100     -1.20372000
H          -4.32014700     -0.10293500      0.09776100
H          -2.76737700     -1.19214300     -1.09174600
H          -2.52840500     -0.48971200     -3.48004500
H          -0.97484500     -1.14541100     -2.87958000
H          -1.21026400      0.62319600     -3.03765900
