19
b3lypvdz=-252.927595868116 
N          -4.04138500     -0.58610000      0.08027200
C          -3.70197200      0.82964900      0.04230800
C          -5.26449000     -0.89201700      0.82773900
C          -5.06448400     -1.04728800      2.34330000
C          -4.23355500     -2.26608700      2.78432300
C          -2.71729700     -2.08916500      2.67591200
H          -4.15108200     -0.92353600     -0.87547100
H          -2.83856300      0.98545300     -0.62290900
H          -3.40904500      1.18255600      1.04526700
H          -4.52968500      1.48752500     -0.30866900
H          -6.05386900     -0.12517300      0.65205000
H          -5.66528200     -1.84344400      0.43599600
H          -6.07209500     -1.12410300      2.78955400
H          -4.62298400     -0.12508800      2.76479200
H          -4.55245600     -3.14264100      2.18862600
H          -4.49340100     -2.51058500      3.83011000
H          -2.18191000     -2.99148900      3.01542500
H          -2.42058300     -1.85637700      1.64288600
H          -2.37496200     -1.25298900      3.31188900
