16
b3lypvdz=-213.652876315675 
N          -3.72853300     -0.43584900      0.03482600
C          -5.18174300      1.61509000     -0.39531900
C          -3.81565500      1.02576100     -0.01307000
C          -5.22789300      3.14507400     -0.38846900
C          -6.60019100      3.70613700     -0.77099700
H          -4.42609300     -0.78900400      0.69681500
H          -4.02344800     -0.81826500     -0.86894200
H          -5.94843500      1.22072700      0.29960400
H          -5.46727300      1.24176400     -1.39903700
H          -3.04684400      1.38610900     -0.72040200
H          -3.51252200      1.41500000      0.97661700
H          -4.93817400      3.51180900      0.61435600
H          -4.46101100      3.54055100     -1.08028800
H          -7.38896000      3.32499500     -0.10045700
H          -6.62453500      4.80735500     -0.72123200
H          -6.87729000      3.41114500     -1.79820400
