18
b3lypvdz=-326.959764976224 
O          -7.67446600     -0.15246200      1.16806700
N          -6.20294600      1.23448100      0.12368100
C          -5.38847400     -0.89883700      1.00136700
C          -7.16272400      2.30362800     -0.06354100
C          -6.53309900      0.08267300      0.78680600
C          -5.19443800     -1.22839900      2.48724500
C          -4.08979200     -2.25693900      2.71566300
H          -5.22604700      1.42218300     -0.06197500
H          -4.44784400     -0.52426200      0.56128500
H          -5.65243500     -1.82307500      0.45781400
H          -6.88690800      2.90254100     -0.94412900
H          -8.15529200      1.85842000     -0.21885400
H          -7.22790100      2.97203500      0.81419400
H          -6.15692400     -1.58984800      2.88379500
H          -4.95905600     -0.30075300      3.04021600
H          -4.31484700     -3.20637200      2.20022100
H          -3.12019200     -1.89494300      2.33142600
H          -3.96071500     -2.48017100      3.78662000
