16
b3lypvdz=-362.839900016134 
O          -3.67599200      1.25582800      1.40154200
O          -7.45400000     -0.23315100      1.20090700
N          -6.22183700      1.33047500      0.05038000
C          -4.96025600      1.75254500     -0.54588400
C          -3.70252100      1.07930000     -0.00300700
C          -7.33483400      2.26047200     -0.04719000
C          -6.40513900      0.13914000      0.69840100
H          -2.92727700      0.75690100      1.75787000
H          -4.86204500      2.83748200     -0.36243000
H          -4.98105700      1.61198200     -1.64554600
H          -2.84054500      1.56789300     -0.50000900
H          -3.66990100      0.00971200     -0.28993800
H          -7.53989500      2.52480400     -1.09916300
H          -8.21661200      1.77688000      0.39054700
H          -7.11639500      3.19027800      0.50735300
H          -5.48689400     -0.48184300      0.72666700
