15
b3lypvdz=-324.7460395246 
O          -2.68316900      1.32231100     -0.80667200
O          -3.60362100      1.20514100      1.34954900
N          -6.16328500      1.42957900      0.29020400
C          -4.97872700      1.77794300     -0.47634000
C          -3.79377900      0.93626700     -0.03243900
C          -7.32003900      2.24765300     -0.03694000
H          -2.03506000      0.60401900     -0.80122300
H          -2.97399000      0.56117000      1.70465300
H          -5.92390800      1.54749500      1.27644100
H          -4.67692000      2.84752400     -0.38903000
H          -5.15295700      1.57615900     -1.54770300
H          -4.02261900     -0.13942500     -0.17999600
H          -7.63917900      2.04561500     -1.07505800
H          -8.15970400      1.98162400      0.62378300
H          -7.14944400      3.34632500      0.04497100
