6
b3lypvdz=-2651.953246755056 
Br          9.11105100     -2.37620800      0.61378900
C           6.70502700     -0.85227100      0.29097500
C           8.03274800     -0.82188200      0.35580300
H           6.13457700     -1.77970600      0.38331600
H           6.15300700      0.07992500      0.13794200
H           8.62379000      0.09194300      0.26387500
