12
b3lypvdz=-248.393007282452 
O           0.37300300      1.29015500     -1.23482700
N          -0.90939700     -0.39904100     -0.42276400
C           0.28415100      0.26140500     -0.58267600
C           1.48565000     -0.40876000      0.07847100
C           1.92293600     -1.70165100     -0.62936300
H          -1.74249800      0.03958400     -0.79852300
H          -1.02006700     -1.17225700      0.22006700
H           2.30031100      0.32983700      0.05761900
H           1.24878100     -0.62128500      1.13801600
H           2.81951000     -2.12344700     -0.14757000
H           1.13380500     -2.47215200     -0.60316900
H           2.16721400     -1.50258800     -1.68588300
