15
b3lypvdz=-287.639921504587 
O          -2.87001900     -2.09440400      0.11274800
N          -0.79192800     -0.40530900     -0.41219200
C          -2.03880900     -0.19570100     -1.12674700
C          -3.08705700     -1.18153400     -0.65013800
C          -1.94575600     -0.23757700     -2.67305900
C          -1.42921100     -1.56749900     -3.23271100
H           0.01162700     -0.18209600     -0.99806000
H          -0.72192600     -1.38676800     -0.13740400
H          -2.46222200      0.79819600     -0.85915500
H          -4.11147300     -1.00260400     -1.07173900
H          -2.93764100     -0.00204200     -3.10077800
H          -1.28125300      0.58672600     -2.98761800
H          -2.12100800     -2.39721500     -3.01037000
H          -1.30851800     -1.51866800     -4.32655600
H          -0.45190700     -1.82810300     -2.79542000
