20
b3lypvdz=-290.982021468752 
C           5.50958700     -1.72501200      0.45647000
C           6.59074600     -0.67738900      0.49383900
C           6.60448000      0.50162000     -0.13703900
C           3.38658800     -3.60340000     -0.70705100
N           3.14757400     -2.30812700     -0.08846100
C           4.23085800     -1.34724700     -0.29340000
C           1.85840300     -1.76299500     -0.48250300
H           5.95111100     -2.64506700      0.02969600
H           5.22975000     -1.99789000      1.49149300
H           7.45747900     -0.94960400      1.11007100
H           5.77795800      0.84241600     -0.76644100
H           7.45443200      1.18211500     -0.03892800
H           3.48482600     -3.55657800     -1.81792100
H           4.30205800     -4.06212000     -0.30597100
H           2.54980900     -4.28130800     -0.47386100
H           3.87774400     -0.37597000      0.09107900
H           4.45273800     -1.19255100     -1.37638000
H           1.66202500     -0.82886700      0.06705000
H           1.05983500     -2.48010700     -0.23293900
H           1.77829800     -1.53821800     -1.57270200
