13
b3lypvdz=-174.357875454594 
C          -5.00126500      1.77149900     -0.63030900
C          -3.83864400      0.99476200      0.01235500
C          -5.18321100     -0.89460600      0.82592300
N          -3.98542800     -0.45595500      0.11686900
H          -5.91909700      1.71668800     -0.02226100
H          -4.74065500      2.83812900     -0.74222000
H          -5.23876400      1.37421300     -1.63350800
H          -2.91263900      1.18918400     -0.55620000
H          -3.65895000      1.38552900      1.03225600
H          -6.14953700     -0.64078100      0.33772200
H          -5.19282700     -0.43815400      1.83116500
H          -5.15308200     -1.98858300      0.96155100
H          -3.98730100     -0.85832700     -0.82284200
