11
b3lypvdz=-210.264374015859 
O          -2.63122800      1.32715500     -0.78352200
C          -4.98449900      1.63307000     -0.66171700
C          -3.77311700      0.97145400     -0.01933300
N          -6.18934100      1.32872900      0.11154900
H          -1.85621900      0.92885400     -0.36385500
H          -4.82543200      2.72499800     -0.64798300
H          -5.01721100      1.32500900     -1.72932300
H          -3.69842600      1.30829100      1.03385800
H          -3.92546300     -0.13052000     -0.00444300
H          -6.96745600      1.89085200     -0.23761200
H          -6.47010800      0.35870900     -0.05371900
