12
b3lypvdz=-397.575531133956 
O          -2.62408200      1.11330800     -0.76690800
O          -3.61591000      1.58149100      1.29004500
O          -3.18139700     -2.38239200     -0.78282500
N          -4.06636900     -0.41218600      0.07515000
C          -3.79028400      1.00650200      0.03619100
C          -2.15248200     -0.17422900     -1.15589800
C          -3.17222400     -1.17835800     -0.62825700
H          -2.85910500      1.13926900      1.71084800
H          -4.89786600     -0.79981700      0.50634200
H          -4.61158100      1.58335700     -0.42151200
H          -1.15756100     -0.38618000     -0.72517200
H          -2.07573900     -0.24056500     -2.25390400
