14
b3lypvdz=-233.234581240804 
C           2.67674000      0.51150000      0.21379900
C           5.08878800      1.21218700     -0.07432300
C           6.42667800      0.59135500      0.09239900
C           7.62217600      1.19750300      0.11675400
C           4.90313000      2.54061500     -0.22205500
C           3.95771800      0.25259700     -0.08266600
H           1.92097400     -0.27620800      0.15736000
H           2.33733300      1.50166400      0.53184500
H           6.41059500     -0.49841800      0.21661300
H           8.53463800      0.61279700      0.25531000
H           7.74507000      2.27937500      0.00214000
H           5.73461200      3.24864800     -0.19248900
H           3.91135200      2.96301600     -0.39560400
H           4.22569600     -0.77843000     -0.34668300
