14
b3lypvdz=-212.415171661052 
C           5.00364300      1.06954400      0.01115900
C           3.35962200     -3.55712200     -0.46094000
N           3.17279400     -2.15824900     -0.09744300
C           4.31228000     -1.31758400     -0.45890100
C           4.06446900      0.12563300     -0.08090900
H           6.06107800      0.84818000     -0.17557300
H           4.74792000      2.09814400      0.27928900
H           3.57410400     -3.73226700     -1.54136700
H           4.20530500     -3.97394900      0.11191300
H           2.46196900     -4.13663700     -0.19035100
H           2.34732800     -1.80116400     -0.58554900
H           5.19750900     -1.69685500      0.08265900
H           4.57272000     -1.38005600     -1.54508100
H           3.02036000      0.39418300      0.12989500
