14
b3lypvdz=-2806.664787013727 
Br          8.56563500     -3.07780600      0.65151800
C           5.40713600      1.15888600      0.00280200
C           6.95659500     -0.73477400      0.28128000
C           6.66959100      0.67259900      0.09352300
C           8.20234600     -1.23182300      0.38562200
C           4.99438200      2.55373300     -0.16529900
C           5.77621600      3.64594900     -0.24174200
H           4.58450600      0.43694000      0.06600100
H           6.10172100     -1.41634600      0.34730200
H           7.52854500      1.35117100      0.03142300
H           9.10414400     -0.61851200      0.32710500
H           3.91005900      2.70210500     -0.23065200
H           6.86818700      3.59840500     -0.18387200
H           5.33303800      4.63657300     -0.36601100
