10
b3lypvdz=-193.036701569674 
C          -5.06801800     -1.23235700      2.34757500
C          -6.46018200      0.03239300      0.63138900
O          -7.27898900      0.33091400      1.46966900
C          -5.20642800     -0.77026800      0.89928100
H          -4.20373700     -1.90312600      2.47380900
H          -5.97163600     -1.76825100      2.67904100
H          -4.94104800     -0.37360300      3.02472300
H          -6.59005900      0.35509200     -0.43823200
H          -4.35521400     -0.13141200      0.58788100
H          -5.19218900     -1.61438100      0.18266400
