15
b3lypvdz=-308.452298768735 
C           2.68293500      0.57993600      0.08018100
C           5.12760900      0.99955400      0.06648900
C           6.39689400      0.55908700      0.03910400
O           0.15448100      1.33017500     -1.11293100
C           0.25863900      0.22231400     -0.64188400
C           1.47877800     -0.31198800      0.08193000
C           3.95334900      0.13892100      0.02503700
H           2.48687000      1.65591200      0.14706700
H           4.93413000      2.07747500      0.13474200
H           6.62935600     -0.50873300     -0.02260800
H           7.24243400      1.24913600      0.07752600
H          -0.58964100     -0.51022100     -0.69568600
H           1.70430800     -1.31764500     -0.31892500
H           1.12753200     -0.50968300      1.11890800
H           4.14342500     -0.94073900     -0.04675000
