14
b3lypvdz=-233.238931291494 
C           2.60196700      0.54152300      0.21402700
C           5.06752900      1.00805700     -0.01870000
C           5.08923400      2.35277600     -0.16296100
C           7.56616400      2.85164100     -0.13984000
C           6.27255400      3.21847200     -0.19429600
C           3.87406800      0.15710500      0.00398000
H           1.78835500     -0.18786000      0.18970700
H           2.32994600      1.57916900      0.42764900
H           6.01669900      0.46798900      0.07715800
H           4.13631300      2.87869000     -0.29015300
H           7.88235800      1.80762600     -0.05834600
H           8.35876000      3.60262600     -0.18180000
H           6.05184600      4.28842600     -0.28827000
H           4.06660900     -0.90994000     -0.16225500
