18
b3lypvdz=-364.042250339423 
O          -3.12917600      0.92902700     -1.16258900
O          -2.90538400      1.58012400      1.09061500
N          -1.23603000     -0.21086500     -0.33246900
C          -3.74881600      1.06033300      0.11092700
C          -2.34190500     -0.23283800     -1.30878900
C          -1.91420400     -0.29306100     -2.77796500
C          -1.22980800     -1.60829200     -3.15906100
H          -2.14958600      0.96040700      1.11205400
H          -0.51872900      0.44743000     -0.65409000
H          -0.78508200     -1.12722600     -0.28575700
H          -4.16364700      0.06805900      0.40135500
H          -4.57300800      1.77505700     -0.02559400
H          -2.94797700     -1.13121000     -1.05811100
H          -2.81131100     -0.13207600     -3.39833600
H          -1.24366300      0.56359000     -2.97451500
H          -1.91725800     -2.46440700     -3.04660600
H          -0.88812100     -1.58927300     -4.20618100
H          -0.34279200     -1.80697900     -2.53398800
