15
b3lypvdz=-308.446399439905 
C           2.65301600      0.59486700      0.14002000
C           5.10534900      1.12065000      0.00279400
O           0.10408500      1.36486600     -0.92700900
C           5.11427500      2.44254500     -0.23134800
C           0.25075300      0.21223400     -0.59466300
C           1.49295000     -0.35194800      0.06521200
C           3.93492400      0.23351600     -0.04132200
H           2.40421800      1.63674500      0.36600500
H           6.05584200      0.62451500      0.23371700
H           6.03815200      3.02187700     -0.16305400
H           4.20596300      2.98512900     -0.51049100
H          -0.56813600     -0.54301400     -0.73943600
H           1.75684800     -1.30023600     -0.43802900
H           1.15585800     -0.66273200      1.07963600
H           4.15550100     -0.82571300     -0.22903200
