12
b3lypvdz=-248.38165114438 
O          -7.43996400     -0.41743000      1.15004900
N          -6.36876100      1.20397500     -0.06519400
C          -5.15872900      1.75347100     -0.65613200
C          -5.00365100      3.25169600     -0.39696400
C          -6.42044200      0.10263500      0.74000500
H          -7.26858400      1.56828800     -0.37009400
H          -4.30815300      1.20167100     -0.22397700
H          -5.13943500      1.55562400     -1.74512400
H          -5.85959600      3.81782000     -0.80256100
H          -4.93971600      3.46266600      0.68266000
H          -4.09581400      3.63856600     -0.88800500
H          -5.39545600     -0.26658300      0.99723700
