15
b3lypvdz=-287.678522182837 
O          -3.15453500     -2.26296400     -0.75844900
N          -4.11861400     -0.42070800      0.14128400
C          -2.08540500     -0.13097100     -1.19445300
C          -3.15641700     -1.04810300     -0.60942500
C          -1.89280200     -0.27946400     -2.71654900
C          -1.33626600     -1.63753700     -3.16459200
H          -4.23536000      0.58397500      0.14055100
H          -4.88605200     -0.99258600      0.47728800
H          -2.31076400      0.92283000     -0.95076000
H          -1.13895700     -0.37993200     -0.68016100
H          -2.85554000     -0.08554200     -3.22623300
H          -1.20553100      0.51983300     -3.04749200
H          -2.04701800     -2.44963400     -2.95757700
H          -1.11738200     -1.62992400     -4.24677100
H          -0.39765700     -1.87437100     -2.63406000
