19
b3lypvdz=-252.929957143571 
N          -4.10142600     -0.37112900      0.15555800
C          -5.10437200      1.81923200     -0.66456500
C          -4.07353900      1.08889200      0.21284200
C          -5.22148300     -1.01818900      0.84736200
C          -4.96660300      3.33946800     -0.61934200
C          -4.89545200     -1.29169600      2.31789200
H          -4.08738400     -0.66135500     -0.82191800
H          -6.12459200      1.53167400     -0.35507400
H          -4.98549100      1.46520200     -1.70640200
H          -3.06042000      1.42603900     -0.07608500
H          -4.20451200      1.39324300      1.26682300
H          -6.16718100     -0.43970500      0.77507600
H          -5.41783200     -1.97887400      0.34274000
H          -5.66853500      3.83307600     -1.30927800
H          -5.16495200      3.73549300      0.39165900
H          -3.94826400      3.65768400     -0.90339200
H          -4.03212900     -1.97078300      2.40399900
H          -5.75637800     -1.74963900      2.83389600
H          -4.64035400     -0.36323300      2.85540900
