16
b3lypvdz=-308.704519913506 
O          -2.79692800      1.20949900     -1.04688100
O          -3.26109200      1.17747300      1.27244200
C          -3.77237100      1.18850400     -0.03627200
C          -2.10221300     -0.01799400     -1.24530200
C          -1.99890700     -0.31467200     -2.73629600
C          -1.26706200     -1.62720200     -3.02446800
H          -2.94062100      0.28390400      1.46457100
H          -4.45895900      0.32806200     -0.19856000
H          -4.32808100      2.13114600     -0.14204800
H          -1.09277300      0.04808800     -0.79366200
H          -2.63326300     -0.85098600     -0.73763000
H          -3.01945100     -0.34521700     -3.15660400
H          -1.48867700      0.53093500     -3.22942700
H          -1.75983500     -2.48034600     -2.52639600
H          -1.24545500     -1.84348500     -4.10454200
H          -0.22291500     -1.59730900     -2.66762300
