17
b3lypvdz=-272.525543425514 
C           2.65706100      0.55701700      0.17218500
C           5.08145300      1.22146600     -0.09068500
C           6.40890200      0.58969900      0.11926300
C           7.61154000      1.18155100      0.14855800
C           4.92167400      2.54948800     -0.27358100
C           1.53183600     -0.43410400      0.12624800
C           3.94091500      0.27537800     -0.10137200
H           2.38363800      1.57732200      0.47079900
H           6.37725500     -0.49565600      0.27487500
H           8.51396100      0.59036400      0.32123300
H           7.75016100      2.25775000      0.00394300
H           5.76306400      3.24502000     -0.23562100
H           3.94199100      2.98387000     -0.48202000
H           0.75029400     -0.11494600     -0.58759400
H           1.88172200     -1.43528800     -0.17286900
H           1.03374500     -0.51927600      1.10986900
H           4.19669000     -0.76515600     -0.34363100
