14
b3lypvdz=-233.239647575009 
C           2.69677100      0.49478800      0.06826600
C           5.12193200      1.11238300     -0.12343800
C           6.60419700     -0.77986200      0.59739300
C           6.40767200      0.50440100      0.26098400
C           5.04147500      2.44788400     -0.31298600
C           3.95013400      0.22730000     -0.32155000
H           1.88043600     -0.20143500     -0.14105900
H           2.44677200      1.41070100      0.61137100
H           5.78778700     -1.50652000      0.62188700
H           7.59511900     -1.14468700      0.87697100
H           7.26172800      1.19168900      0.27530800
H           5.91162900      3.09054200     -0.15379400
H           4.11426800      2.92236600     -0.64013400
H           4.15397800     -0.72395300     -0.82741900
