9
b3lypvdz=-209.09423076783 
N          -0.89370200     -0.44876200     -0.41546500
C           0.26000900      0.25178400     -0.61142700
O           0.37229500      1.22211600     -1.33813600
C          -2.10108000     -0.17554700     -1.17889200
H          -0.83418600     -1.31417100      0.10857800
H           1.10279100     -0.16179300     -0.00346600
H          -2.16978600      0.90736100     -1.35148100
H          -2.98016000     -0.51305500     -0.61110900
H          -2.09948200     -0.67853300     -2.16300200
