16
b3lypvdz=-213.638726045276 
C           3.40261100     -3.56930400     -0.53441000
N           3.16264300     -2.21489200     -0.05731300
C           1.47258800     -0.37327900      0.08303000
C           4.30466300     -1.35931600     -0.34478700
C           1.90154400     -1.68405300     -0.57596300
H           3.51251800     -3.63646900     -1.64466600
H           4.32537100     -3.96458300     -0.07966500
H           2.57072300     -4.22848900     -0.23645700
H           0.46572500     -0.08763500     -0.26298400
H           2.14921000      0.46079500     -0.16348500
H           1.45002500     -0.48585800      1.17980000
H           4.17504100     -0.36677300      0.11199800
H           5.21212800     -1.80463000      0.09353200
H           4.48522500     -1.21809200     -1.43854400
H           1.12899300     -2.44844800     -0.38182300
H           1.93959200     -1.55007600     -1.68676200
