22
b3lypvdz=-292.214508703556 
N          -4.28518800     -0.70366500     -0.05960300
C          -4.75610900      1.79590100     -0.33649000
C          -3.79898000      0.66885000      0.07969200
C          -5.51121800     -1.04147700      0.66440200
C          -5.30026700     -1.09251900      2.18583000
C          -4.19237300     -2.04237200      2.66252200
C          -4.49430300     -3.52485900      2.43381100
H          -4.39931600     -0.92955800     -1.04737700
H          -5.65655400      1.83321800      0.29702100
H          -4.25279600      2.77432500     -0.25486000
H          -5.09203800      1.67211800     -1.38136100
H          -2.87039400      0.74083200     -0.51058900
H          -3.49622100      0.82454800      1.13009000
H          -6.35185800     -0.34433900      0.45507300
H          -5.84101400     -2.02846300      0.29913900
H          -6.26294900     -1.36868300      2.65352300
H          -5.07178100     -0.07367000      2.54951400
H          -3.25680400     -1.77285400      2.14579400
H          -4.02497200     -1.86847900      3.74026800
H          -4.53286400     -3.77678700      1.36085200
H          -5.46389100     -3.81239600      2.87872100
H          -3.72491100     -4.16657200      2.89292900
