17
b3lypvdz=-288.841173158353 
O          -3.77866800      1.53426900      1.49341800
N          -3.97238000     -0.38400900      0.15878500
C          -5.19148500      1.79036200     -0.39491100
C          -3.95141800      1.07413000      0.16005400
C          -5.19533400     -1.02188600      0.64186000
C          -4.97395200      3.29090900     -0.59755300
H          -3.05987400      0.99678800      1.86216700
H          -3.71310900     -0.73284700     -0.76347800
H          -6.02981100      1.61735600      0.30028100
H          -5.46411900      1.31266400     -1.35364900
H          -3.07997500      1.35394700     -0.46953100
H          -6.06038400     -0.96021900     -0.04950000
H          -5.48281000     -0.54566600      1.59149500
H          -4.99739100     -2.08564000      0.85172900
H          -5.88565300      3.78415000     -0.97223300
H          -4.67648900      3.77334400      0.34630100
H          -4.17374800      3.48064700     -1.33403600
