13
b3lypvdz=-323.584034248588 
O          -2.54384800      1.05811700     -0.71156400
O           0.31180300      1.29157300     -0.86598000
N          -0.85286600     -0.64376200     -0.69941500
C          -2.00218500     -0.04790200     -1.38132100
C           0.23926800      0.14000000     -0.44173700
C           1.36359500     -0.50389100      0.35007200
H          -1.83442000      1.72594500     -0.73605600
H          -0.99885700     -1.47177200     -0.13347300
H          -2.78764000     -0.81562100     -1.43858600
H          -1.68017200      0.21904600     -2.40557700
H           2.18638300     -0.74743600     -0.34132800
H           1.74662900      0.22335600      1.08006200
H           1.06161100     -1.42485300      0.87230300
