18
b3lypvdz=-326.964063235885 
O          -7.55953600     -0.09852900      1.09993100
N          -6.07429900      1.20438100     -0.01537000
C          -5.28562500     -0.89458200      0.98642200
C          -6.41965800      0.08995900      0.70143000
C          -5.16143700     -1.19749000      2.48805200
C          -4.22022900     -2.36349500      2.82134500
C          -2.73874500     -2.09854500      2.53226700
H          -5.16196200      1.31309200     -0.43655500
H          -6.81772300      1.83496100     -0.29419400
H          -4.33078600     -0.53997200      0.56403300
H          -5.54797700     -1.82849900      0.45732100
H          -6.17382400     -1.41599100      2.86337600
H          -4.81937000     -0.28754400      3.01674800
H          -4.55197600     -3.26024300      2.26464600
H          -4.33847100     -2.61263200      3.89064600
H          -2.11330300     -2.95844200      2.82433500
H          -2.55191400     -1.90736300      1.46142700
H          -2.37276500     -1.22176500      3.09443900
