8
b3lypvdz=-2707.2845758305 
Br          9.09297300     -2.31980400      0.52145800
N           8.70572300      0.40725800      0.24983500
C           6.63394800     -0.90293800      0.31672400
C           7.96395100     -0.76060700      0.37154600
H           8.13241700      1.24493900      0.34690700
H           9.51681100      0.44545400      0.86398400
H           6.16300800     -1.88298300      0.30289400
H           6.00226900     -0.01191900      0.25765200
