14
b3lypvdz=-233.269819949726 
C           5.55000100     -1.78879500      0.36871300
C           5.02560700      1.01255000      0.04553600
C           6.67432600     -0.78399200      0.25904500
C           6.41121200      0.52875700      0.11948700
C           4.27515400     -1.31944000     -0.35583400
C           4.00678700      0.15562100     -0.15026000
H           5.86852100     -2.76510600     -0.03206900
H           5.33516400     -1.95711100      1.44532500
H           4.84118200      2.08711100      0.14156400
H           7.70410800     -1.13791700      0.37106100
H           7.22448400      1.25977100      0.08948000
H           3.41240300     -1.92438200     -0.03313000
H           4.38398500     -1.50018900     -1.44647400
H           2.97856600      0.52312200     -0.22464300
