10
b3lypvdz=-135.071808256142 
N           3.13944400     -2.22150800     -0.06793000
C           1.92048500     -1.67302500     -0.64759500
C           3.39968800     -3.58684500     -0.50668800
H           3.92746800     -1.63185100     -0.34330500
H           1.77969300     -0.63373600     -0.30824000
H           1.05538700     -2.25722900     -0.28915000
H           1.88775500     -1.68316800     -1.76292000
H           3.45272400     -3.71817600     -1.61335900
H           4.34504200     -3.94785500     -0.06984200
H           2.59611300     -4.24780800     -0.13787000
