14
b3lypvdz=-249.566423442052 
O          -3.75441000      1.48215700      1.43536700
N          -3.90327200     -0.38787300      0.04543100
C          -5.15150400      1.75570800     -0.46003300
C          -3.89389500      1.07026700      0.08615800
C          -5.03173500      3.27619200     -0.55319800
H          -3.05199700      0.92567100      1.80682700
H          -4.81873000     -0.72979900      0.35428100
H          -3.78759300     -0.71351200     -0.91715500
H          -5.98883500      1.47226700      0.20371800
H          -5.37260500      1.32922500     -1.45492700
H          -3.01910000      1.39062300     -0.52037500
H          -5.96863100      3.73344300     -0.91039200
H          -4.78025100      3.70735800      0.42793700
H          -4.23614200      3.56897300     -1.25973800
