13
b3lypvdz=-269.433748404839 
O          -2.74694000      1.42938200     -0.77658700
O          -3.69478800      1.37327300      1.37446400
C          -5.09043400      1.69001700     -0.53116000
C          -3.84042400      1.00695100      0.01246900
C          -4.99020600      3.21525600     -0.55423000
H          -1.95224000      0.96630900     -0.47375900
H          -3.03099100      0.79484200      1.77709600
H          -5.93685000      1.36122200      0.09382200
H          -5.26707100      1.30074900     -1.54817700
H          -3.95142300     -0.09653700     -0.06566100
H          -5.92302000      3.66228500     -0.93319300
H          -4.79722100      3.61003100      0.45510100
H          -4.16579200      3.54021900     -1.20558500
