16
b3lypvdz=-304.881169631836 
O          -3.59007000      1.29168400      1.44869000
N          -4.05187300     -0.43171500     -0.06708400
N          -6.16443600      1.49568200      0.31290100
C          -4.94969700      1.89249400     -0.38560900
C          -3.79486800      0.99243800      0.07126400
C          -7.36099100      2.21119700     -0.09964200
H          -3.14977700      0.50602800      1.81040100
H          -5.05336400     -0.58010500      0.09861200
H          -3.86365600     -0.73395500     -1.02480700
H          -5.99215400      1.63675600      1.31019600
H          -4.66836000      2.95948600     -0.23450100
H          -5.09535400      1.74754000     -1.47213900
H          -2.88702900      1.23353200     -0.51830800
H          -7.58543300      1.98073900     -1.15626200
H          -8.21889800      1.87168200      0.50153400
H          -7.29503900      3.31951700     -0.01194500
