10
b3lypvdz=-155.885472955818 
C           2.65161700      0.52326500      0.17160100
C           5.08480300      1.12660200     -0.03627500
C           5.04550600      2.45969800     -0.18901900
C           3.93755900      0.20652900     -0.04828200
H           1.87224300     -0.24141700      0.12453400
H           2.33396300      1.54052200      0.41796600
H           6.06348200      0.65018900      0.09708800
H           5.96110100      3.05495000     -0.15099200
H           4.11007700      2.99890000     -0.36676500
H           4.18444900     -0.84343800     -0.24715600
