18
b3lypvdz=-326.923939647086 
O          -2.83952500     -2.13413700      0.03995800
N          -0.81739000     -0.37749400     -0.44195700
C          -2.06094200     -0.19773000     -1.16990600
C          -3.09888200     -1.17645300     -0.65455300
C          -1.93388400     -0.27852000     -2.72977800
C          -3.23618800      0.09086000     -3.45507700
C          -1.38631000     -1.63296100     -3.19905100
H          -0.01535400     -0.12192300     -1.01730200
H          -0.71831300     -1.36084900     -0.18395200
H          -2.48236700      0.80662200     -0.94728400
H          -4.15186400     -0.95697400     -0.96367300
H          -1.18537600      0.49671000     -2.98361000
H          -3.98718300     -0.71449100     -3.38827200
H          -3.04617500      0.27410400     -4.52523800
H          -3.68685100      1.00677400     -3.03632200
H          -2.12003800     -2.44173400     -3.03949300
H          -1.14434300     -1.60791400     -4.27397800
H          -0.46841500     -1.90439000     -2.65521300
