12
b3lypvdz=-248.385251496462 
O          -7.56421900     -0.27545200      1.08339100
N          -6.23191500      1.25332200      0.07672100
C          -5.00214200      1.70591000     -0.54671000
C          -5.24889300     -0.88407400      0.77800500
C          -6.45677600      0.03464600      0.66827200
H          -7.06795100      1.82106300     -0.01779000
H          -4.14549600      1.63280900      0.14362700
H          -5.11255700      2.76366500     -0.82561700
H          -4.74971900      1.14404300     -1.46535500
H          -4.79456700     -1.07935200     -0.20747000
H          -4.46804000     -0.43457600      1.41434700
H          -5.57832500     -1.82980300      1.22547900
