10
b3lypvdz=-2783.465517103858 
Br          9.19570900     -2.36086400      0.62191100
C           6.67892900     -0.81296300      0.29532800
C           6.34943100      0.56530600      0.11026500
C           7.53029000      1.28125600      0.07377600
C           8.05590600     -0.87759800      0.36730700
N           8.56743400      0.38838800      0.23026700
H           5.99687100     -1.65470000      0.37192600
H           5.35074800      0.98423800      0.01022600
H           7.72631900      2.34245200     -0.05563200
H           9.55136300      0.61938600      0.24832700
