15
b3lypvdz=-287.665601473655 
O          -7.58900200     -0.38307600      1.04080800
N          -6.26993500      1.21630100      0.08674900
C          -5.05357800      1.71309300     -0.56702900
C          -3.77712600      1.10949500      0.02559100
C          -5.03736200      3.23931200     -0.45822200
C          -6.50228300     -0.01188000      0.63315100
H          -7.11296400      1.77783700     -0.01826100
H          -5.09015800      1.44874400     -1.64364000
H          -2.90271500      1.59192700     -0.43891000
H          -3.72829100      1.28003300      1.11438100
H          -3.69408500      0.02824400     -0.16134600
H          -5.95184500      3.68227400     -0.88680500
H          -4.96423000      3.55332900      0.59627200
H          -4.18053300      3.65804900     -1.00843500
H          -5.59359300     -0.65398400      0.68209500
