18
b3lypvdz=-326.950140232885 
O          -3.49138500     -2.36589200     -0.96366600
N          -4.00758300     -0.43106500      0.15519500
C          -5.19655100     -0.91793700      0.84774600
C          -3.28114300     -1.19242100     -0.71117800
C          -5.04895600     -1.13047100      2.36292800
C          -4.19565400     -2.32521600      2.82404300
C          -2.67869500     -2.13720100      2.73916300
H          -3.73809400      0.54033500      0.26314600
H          -6.01363200     -0.20022100      0.66432500
H          -5.46590100     -1.86412500      0.35490400
H          -2.45520300     -0.60798800     -1.18396500
H          -6.07427600     -1.26835300      2.75035800
H          -4.67421500     -0.20105900      2.83181100
H          -4.48880600     -3.21847700      2.24483700
H          -4.46735600     -2.54092100      3.87259800
H          -2.15301100     -2.95468200      3.25807900
H          -2.32397000     -2.12850800      1.69935700
H          -2.36127000     -1.19509700      3.21931900
