7
b3lypvdz=-95.792403892835 
C          -3.78095100      1.03611800     -0.00178600
N          -4.03147500     -0.40082700      0.13494200
H          -2.72022300      1.19955100     -0.25798600
H          -3.95689800      1.53057800      0.96896000
H          -4.39321600      1.56999900     -0.75977200
H          -5.01740800     -0.55213600      0.36048800
H          -3.89192800     -0.85748300     -0.76934600
