12
b3lypvdz=-248.382409042008 
O           0.31963600      1.38947300     -1.10258900
N          -0.84847400     -0.48415000     -0.50172500
C          -2.07749400     -0.15467100     -1.21903100
C          -1.95568500     -0.31551900     -2.73568200
C           0.25260400      0.31633900     -0.52844400
H          -0.76964200     -1.38426200     -0.04373200
H          -2.35061800      0.88385700     -0.97398200
H          -2.87004300     -0.80456200     -0.81650400
H          -2.91190600     -0.06745400     -3.22496100
H          -1.68503500     -1.34947800     -3.00676900
H          -1.18159500      0.36192700     -3.12354600
H           1.10285100     -0.12709800      0.04626600
