15
b3lypvdz=-233.519331586263 
O          -2.78014000      1.46461900     -0.96221800
C          -5.10341200      1.55422800     -0.39376400
C          -3.73785000      0.98575500     -0.02396600
C          -5.16701000      3.08350500     -0.35157400
C          -6.53953800      3.63220300     -0.74751700
H          -1.91211000      1.13658500     -0.68813600
H          -5.85650700      1.12271500      0.29074300
H          -5.36495700      1.19724300     -1.40727800
H          -3.47236300      1.29455400      1.01024700
H          -3.78427200     -0.12316500     -0.03340100
H          -4.90508400      3.42877900      0.66683600
H          -4.38668300      3.48725700     -1.01708200
H          -7.33612200      3.23214600     -0.09710600
H          -6.57644200      4.73214400     -0.67894900
H          -6.79521000      3.35313100     -1.78463400
