13
b3lypvdz=-174.360293986924 
C          -7.33614200      2.22732800     -0.09077300
C          -4.95568900      1.85573900     -0.43585500
C          -3.77525400      0.95935800     -0.08029900
N          -6.16345400      1.44570900      0.27371700
H          -7.21064900      3.27146400      0.24593100
H          -7.54527600      2.25728300     -1.18516600
H          -8.22645000      1.82508700      0.41776200
H          -4.73093100      2.89818000     -0.14115800
H          -5.09149100      1.87198900     -1.54399000
H          -2.85927500      1.29450700     -0.59271900
H          -3.59668300      0.96370600      1.00684400
H          -3.96091700     -0.08503900     -0.38961600
H          -6.34598800      0.46198800      0.06322300
