17
b3lypvdz=-342.9876508569 
O           0.18581300      1.27918500     -1.25351800
N          -0.94421500     -0.47659800     -0.35604400
N           3.13416400     -2.15460800     -0.08023700
C           0.19288000      0.26556900     -0.57445700
C           1.46457600     -0.32011500      0.03181000
C           4.37640600     -1.43046400     -0.33104800
C           1.94931500     -1.57570700     -0.71156500
H          -1.82250300     -0.06799000     -0.65755900
H          -0.97962400     -1.17408100      0.37686500
H           3.24391100     -3.10508400     -0.43610700
H           2.22002000      0.47640100     -0.02465100
H           1.30969600     -0.58320400      1.09257900
H           4.36654500     -0.45855200      0.18839900
H           5.21842400     -2.00659300      0.08319900
H           4.58412300     -1.22998800     -1.40567200
H           1.15564100     -2.34112500     -0.67388300
H           2.09932700     -1.31044500     -1.78331200
