15
b3lypvdz=-324.740712956525 
O          -2.88438000      1.03660700     -1.07274600
O          -3.61867900      1.17380600      1.16354200
N          -6.23604000      1.54249200      0.30719900
C          -5.10634900      1.70519500     -0.60428500
C          -3.95222700      0.81590700     -0.16853500
C          -1.92490000     -0.00840800     -1.09185600
H          -2.94360300      0.55104100      1.46974800
H          -6.96736700      2.21776600      0.09043100
H          -5.91267000      1.72180100      1.25899700
H          -4.72462500      2.74530400     -0.68352800
H          -5.41518800      1.40245900     -1.61808600
H          -4.24320000     -0.25367000     -0.20054800
H          -1.23542000      0.04359200     -0.22487800
H          -2.41900500     -0.99834300     -1.09823200
H          -1.32644700      0.09615300     -2.00882300
