12
b3lypvdz=-285.473502166415 
O          -2.74668400      1.18619800     -0.87161300
O          -3.55601300      1.46328300      1.32519800
N          -4.01091000     -0.47761500      0.12923500
C          -3.78605400      0.95391600      0.03873800
C          -5.26947300     -0.84437400      0.78318400
H          -2.01702500      0.59518500     -0.61562600
H          -2.95900000      0.83307800      1.76450300
H          -3.99895900     -0.85295600     -0.82085300
H          -4.64349500      1.53455400     -0.35246700
H          -6.17116200     -0.43336400      0.28151000
H          -5.26626400     -0.46159100      1.81463100
H          -5.35846000     -1.94101500      0.81905900
