20
b3lypvdz=-328.123647461378 
O          -3.21819800      1.27983800      1.45002800
N          -4.06960100     -0.51164100      0.14945000
C          -3.74589000      0.89869600      0.19433700
C          -5.35103800     -0.89645200      0.75910900
C          -5.25772700     -1.08856800      2.28091100
C          -4.27123100     -2.16908200      2.74425400
C          -4.63525000     -3.59619400      2.32088700
H          -2.51587600      0.63873200      1.64740800
H          -4.02974700     -0.83426800     -0.81587300
H          -3.02838600      1.09820100     -0.62692400
H          -4.62534200      1.56085300      0.05363300
H          -6.13987300     -0.14393100      0.54309500
H          -5.67719800     -1.83547700      0.28220600
H          -6.26994600     -1.32641500      2.65891900
H          -4.96366100     -0.12524700      2.72874200
H          -3.26721000     -1.91846400      2.36129700
H          -4.20626400     -2.12630300      3.84607600
H          -4.57987000     -3.73136500      1.22723300
H          -5.65961700     -3.86065100      2.63884400
H          -3.95127700     -4.33136100      2.77476800
