21
b3lypvdz=-312.084078945689 
O          -2.74594400      1.13109700     -0.90606300
C          -5.05642000      1.55328800     -0.20132500
C          -3.62968100      1.18761400      0.20946100
C          -5.15502300      2.96845600     -0.77935300
C          -2.56095500     -0.17004800     -1.43913200
C          -1.60519700     -0.08480800     -2.62015500
C          -1.24151200     -1.46529800     -3.17823200
H          -5.71152300      1.45541700      0.68469800
H          -5.42168600      0.81541600     -0.93885200
H          -3.22729900      1.96125200      0.88894300
H          -3.61577100      0.22514000      0.75771500
H          -6.17374200      3.19713500     -1.13310100
H          -4.88561900      3.72159100     -0.01754500
H          -4.46139400      3.09042300     -1.62597000
H          -2.14218700     -0.84032200     -0.65704100
H          -3.52796500     -0.61336000     -1.76109600
H          -2.06362800      0.54316200     -3.40439000
H          -0.69714900      0.44695600     -2.28475200
H          -2.13359200     -2.00839100     -3.53629600
H          -0.54411300     -1.38269800     -4.02697400
H          -0.75480200     -2.09162200     -2.41014000
