16
b3lypvdz=-2807.872922900701 
Br          8.75798900     -2.71722700      0.08224400
C           5.60419000     -1.54370400      0.54882800
C           2.52102600      0.27019100      0.19741800
C           6.78219500     -0.62362300      0.42244500
C           8.06675300     -0.93584400      0.23693900
C           4.44674600     -1.22931600     -0.42958100
C           3.78750200      0.10472500     -0.19685200
H           5.93451100     -2.58261300      0.39749000
H           5.20809300     -1.47083400      1.57970000
H           1.85963600     -0.58523700      0.37211200
H           2.09479700      1.26361600      0.36220800
H           6.58201400      0.45299000      0.50307300
H           8.86435900     -0.19700600      0.15893800
H           3.68988900     -2.02662100     -0.33668400
H           4.84068000     -1.27638300     -1.46237900
H           4.40321800      0.99718600     -0.36740000
