11
b3lypvdz=-210.261110396343 
N          -1.10142200     -0.25043900     -0.34686300
O          -2.89356000      1.08782500     -1.12460200
C          -3.68972900      0.98480700      0.04543500
C          -2.12229300     -0.06732500     -1.36737400
H          -0.29560300      0.34738300     -0.53846900
H          -0.76091000     -1.21345800     -0.35158900
H          -3.08104600      0.68643200      0.91602600
H          -4.50702600      0.24680300     -0.09029000
H          -4.13544000      1.97455600      0.22358700
H          -2.76078100     -0.97599800     -1.36714200
H          -1.72499000      0.07911400     -2.39082100
