15
b3lypvdz=-287.640966759318 
O          -7.25007600      0.45506400      1.40091000
N          -4.06247100     -0.43651100      0.25690800
C          -5.28183100     -0.89157700      0.93287300
C          -6.39129700      0.11028800      0.62243100
C          -5.17893500     -1.20081300      2.43268000
C          -4.14464900     -2.27909900      2.75541800
H          -3.61576600      0.30458500      0.80348100
H          -3.38167300     -1.19424200      0.20384100
H          -5.60159400     -1.81291500      0.40023600
H          -6.34021400      0.51348800     -0.42265000
H          -6.17557800     -1.49863000      2.79854700
H          -4.93216900     -0.26660700      2.97075000
H          -4.37424000     -3.22513300      2.23330700
H          -3.13098300     -1.96632100      2.45111400
H          -4.11272300     -2.49417600      3.83515600
