14
b3lypvdz=-249.566436314869 
O          -2.77562000      1.39702300     -0.72207200
N          -3.97468100     -0.47098100     -0.00763400
C          -5.11789800      1.72199400     -0.53284200
C          -3.89724200      0.98562700      0.03366400
C          -4.97892900      3.24415000     -0.54215900
H          -2.04482900      0.82568300     -0.43846000
H          -4.65461600     -0.80760100      0.67776100
H          -4.32655500     -0.76448800     -0.92426600
H          -5.99748900      1.41657600      0.06110000
H          -5.28286700      1.35187600     -1.56215100
H          -3.77005300      1.26007300      1.10367600
H          -5.88092100      3.72714300     -0.95171400
H          -4.81969300      3.63967000      0.47599800
H          -4.11790600      3.54815300     -1.15550000
