16
b3lypvdz=-308.71916940179 
O          -2.81298300      1.48438500     -0.90717200
O          -3.51407500      1.34578800      1.33596500
C          -5.13149500      1.56817300     -0.39009200
C          -3.77958000      0.97892000     -0.00692600
C          -5.16269000      3.10021800     -0.43396500
C          -6.56053700      3.63826300     -0.74847000
H          -1.96494600      1.05871200     -0.71233300
H          -2.75882600      0.82845400      1.65137300
H          -5.86676300      1.19491800      0.34289700
H          -5.42001200      1.15548300     -1.37233600
H          -3.81425700     -0.12952800     -0.08548700
H          -4.81406800      3.49439600      0.53527200
H          -4.43739800      3.44960600     -1.18670500
H          -7.29570600      3.31410200      0.00793700
H          -6.57747100      4.74037400     -0.77495700
H          -6.91869300      3.27473600     -1.72760000
