14
b3lypvdz=-158.33609994177 
C          -5.02003400     -1.16101100      2.34855800
C          -4.74156000     -3.68578000      2.32253300
C          -4.23433800     -2.35836900      2.90331400
C          -2.72819500     -2.19506700      2.65437700
H          -4.90740900     -1.08383000      1.25169600
H          -6.09768600     -1.24837300      2.57137500
H          -4.66441000     -0.21453600      2.78988000
H          -4.60170100     -3.71832000      1.22649400
H          -5.81535900     -3.83101000      2.53122100
H          -4.19672100     -4.54190600      2.75492600
H          -4.39667400     -2.38550100      3.99851700
H          -2.15480800     -3.02487300      3.10024500
H          -2.50587900     -2.17746900      1.57214500
H          -2.34802600     -1.25605500      3.09171900
