18
b3lypvdz=-326.916255919667 
O          -2.68819700      1.39190200     -0.76748300
N          -6.27566600      1.21910000      0.05819000
C          -5.05583800      1.63659400     -0.65285700
C          -3.83398000      0.94817900     -0.05288500
C          -5.06103800      3.16501100     -0.50644700
C          -7.25015300      2.33225800      0.07710700
C          -6.55027600      3.51582900     -0.62392700
H          -1.90809000      0.98413700     -0.36659300
H          -6.67724500      0.38200900     -0.35721600
H          -5.06798700      1.37961400     -1.73515000
H          -3.78020300      1.19761500      1.02668800
H          -3.96413500     -0.15199300     -0.13270500
H          -4.67799000      3.43859400      0.49302300
H          -4.42556700      3.65917600     -1.25367000
H          -8.19665800      2.06170700     -0.42321600
H          -7.50707000      2.59174100      1.12104300
H          -6.80693500      4.48547100     -0.16997500
H          -6.84447100      3.56205700     -1.68622800
