15
b3lypvdz=-287.629396559713 
O          -7.33304700      0.31058300      1.27757500
N          -4.08532900     -0.42892200      0.04805000
C          -3.70923500      0.97073400      0.24475800
C          -5.26617700     -0.89495900      0.78586200
C          -6.52275800     -0.07766000      0.46838400
C          -5.01497500     -1.01379800      2.28749800
H          -4.19993600     -0.61756600     -0.94768600
H          -2.87128100      1.20833100     -0.42779300
H          -3.35114800      1.13089700      1.27467000
H          -4.51728000      1.71045800      0.05492300
H          -5.48788300     -1.90596800      0.38709000
H          -6.65093200      0.14216900     -0.62939800
H          -4.15317900     -1.67209400      2.47061500
H          -5.90129400     -1.42629600      2.79092000
H          -4.81074700     -0.03200900      2.74253300
