21
b3lypvdz=-312.087410342687 
O          -3.52288100      0.85074700     -1.29331200
C          -5.29695100      1.87036100     -0.05198100
C          -4.14916400      0.86963200     -0.02324800
C          -4.84415400      3.30633800     -0.32862700
C          -2.43057100     -0.04797400     -1.37342800
C          -1.82324200      0.02869800     -2.76836000
C          -2.80516700     -0.34554400     -3.88176300
H          -5.82266500      1.81746700      0.91793100
H          -6.01728100      1.54770100     -0.82425900
H          -3.41020800      1.14933200      0.75926700
H          -4.52725600     -0.14258000      0.23535000
H          -5.70624300      3.99138200     -0.37205000
H          -4.16262000      3.66887100      0.46020300
H          -4.30257200      3.36587200     -1.28543200
H          -1.66729400      0.20776500     -0.60848100
H          -2.78052000     -1.08231500     -1.15593600
H          -0.94072800     -0.63407900     -2.79395900
H          -1.45327200      1.05646800     -2.93202300
H          -3.15169000     -1.38959300     -3.78528600
H          -2.33407200     -0.23904000     -4.87320900
H          -3.69084900      0.30609000     -3.84739900
