16
b3lypvdz=-362.823536873846 
O          -3.15917100      1.35322100      1.47479600
O          -7.40334200      0.19302700      1.20373400
N          -4.07179700     -0.35604200      0.11198900
C          -3.77849700      1.05973800      0.24212800
C          -5.25963300     -0.88280700      0.80302500
C          -6.53536400     -0.12656900      0.42724600
C          -5.08450500     -0.97705000      2.31787200
H          -2.49872700      0.65456100      1.61471800
H          -4.06162500     -0.63231800     -0.86800900
H          -3.12666600      1.32136200     -0.61566500
H          -4.66553400      1.72321600      0.21053200
H          -5.41229800     -1.90199400      0.39467900
H          -6.61716300      0.11610100     -0.67000000
H          -4.20711500     -1.59920200      2.54949600
H          -5.97877200     -1.42269000      2.77604900
H          -4.93129100      0.01934700      2.75401100
