15
b3lypvdz=-287.673265729688 
O          -7.55689900     -0.35163100      1.09234500
N          -6.26718500      1.23734700      0.12746600
C          -5.07079000      1.76252000     -0.51237000
C          -5.23830000     -0.91151800      0.75855100
C          -5.05792700      3.28738600     -0.47298200
C          -6.45919700     -0.00585300      0.67966800
H          -7.12660200      1.77341600      0.03546600
H          -4.18791100      1.37088200      0.01549900
H          -4.98943100      1.42168800     -1.56437200
H          -4.78016500     -1.07295200     -0.23085700
H          -4.46378400     -0.47539500      1.41164900
H          -5.56013700     -1.87318700      1.17674000
H          -5.92534800      3.70813900     -1.00898800
H          -5.08706600      3.65455300      0.56523700
H          -4.15225600      3.68170600     -0.95975000
