17
b3lypvdz=-342.99957046245 
O          -7.18208600      0.22777500      1.81532200
N          -4.05646600     -0.38633300      0.08887500
N          -6.29798800      1.11129600     -0.11058800
C          -5.20005700     -0.80173700      0.90875400
C          -7.28404000      2.16291400     -0.29693800
C          -6.64737900      3.54206400     -0.46098900
C          -6.32790600      0.24126500      0.93587100
H          -3.42506500      0.19367200      0.64617900
H          -3.50521100     -1.19953000     -0.18887300
H          -5.50273200      1.01333500     -0.73728800
H          -4.97504400     -1.05330700      1.96157000
H          -5.64087300     -1.71053300      0.46282400
H          -7.91752400      1.93564700     -1.17549400
H          -7.93942100      2.12639200      0.58654000
H          -6.04813400      3.81320000      0.42355000
H          -7.42921800      4.30678100     -0.59893100
H          -5.98445900      3.58030000     -1.34278600
