11
b3lypvdz=-264.430450006121 
O          -7.46541400     -0.13174000      1.37238400
N          -4.01462200     -0.25865300      0.23605000
N          -6.26854600      1.15861100     -0.08771500
C          -5.22004100     -0.83715100      0.83481800
C          -6.44123400      0.09042700      0.74407000
H          -3.55186600      0.36479200      0.90093800
H          -3.33883800     -0.99337800      0.02423100
H          -5.45249400      1.14578000     -0.69249800
H          -7.09293000      1.68382300     -0.35542400
H          -5.12980100     -1.15435100      1.89046900
H          -5.49301500     -1.74325900      0.26717700
