13
b3lypvdz=-195.182653366688 
C           2.67099400      0.51436600      0.11008800
C           5.10428000      0.99136000      0.08391900
C           6.38704800      0.59313300      0.02884300
C           1.46572500     -0.37543500      0.07504500
C           3.95062200      0.10105800      0.04351400
H           2.47404500      1.59123600      0.20478400
H           4.88432000      2.06358900      0.16841200
H           6.65567500     -0.46457300     -0.05575800
H           7.20832600      1.31243300      0.06492100
H           0.79224200     -0.10264000     -0.75800100
H           1.74321100     -1.43565700     -0.03998900
H           0.86705000     -0.27425100      0.99910300
H           4.16096400     -0.97322000     -0.04788200
