14
b3lypvdz=-2806.667818125556 
Br          8.98265000     -2.61048800      0.43048700
C           2.59733100      0.50687900      0.03441900
C           5.01376400      1.00908500      0.08351600
C           6.88617200     -0.65661900      0.26887200
C           6.33068900      0.68020800      0.15530100
C           8.21183200     -0.87765300      0.31225000
C           3.87876900      0.10260800      0.11754500
H           1.77186100     -0.20725300      0.06676200
H           2.33768300      1.56469200     -0.07232900
H           4.76569400      2.07237700     -0.01375800
H           6.20622600     -1.51139100      0.31436100
H           7.05899300      1.49748400      0.11497000
H           8.95784300     -0.08099300      0.27896900
H           4.08269500     -0.96833600      0.22223500
