18
b3lypvdz=-289.782674985488 
C           5.41454400     -1.95597100      0.53642700
C           5.28593800      1.02079400     -0.19713700
C           5.05585900      2.45867800     -0.13840200
N           3.11249700     -1.96637000     -0.28673500
C           6.00670300      3.38486500      0.06526100
C           4.45118400     -1.38669600     -0.50795200
C           4.31481400      0.12171300     -0.43492700
H           6.42643800     -1.53845300      0.42191600
H           5.49636100     -3.05110000      0.42503900
H           5.04948200     -1.73194600      1.55144100
H           6.31746100      0.68750000     -0.03027200
H           4.01648700      2.78379200     -0.27283100
H           2.50872700     -1.72777600     -1.07872300
H           3.18560100     -2.98679100     -0.30896000
H           7.05599000      3.10403400      0.20376800
H           5.76316700      4.44933800      0.10510100
H           4.86624100     -1.63796900     -1.51280600
H           3.29660700      0.49625900     -0.60241000
