18
b3lypvdz=-326.9549662357 
O          -7.58302600     -0.00846700      1.23222100
N          -6.17798300      1.28961100      0.02889000
C          -4.94662100      1.61233800     -0.67006200
C          -5.32926600     -0.82018300      1.01606800
C          -6.46035500      0.17432100      0.77585000
C          -5.19822800     -1.20367900      2.49693200
C          -4.13922000     -2.28289200      2.71546600
H          -6.98682800      1.88422100     -0.12229500
H          -4.09722500      1.75035700      0.01938300
H          -5.08725900      2.55989700     -1.20948400
H          -4.66573600      0.84701100     -1.41436000
H          -4.36417200     -0.46022200      0.62955100
H          -5.58631800     -1.72496100      0.43569300
H          -6.18388300     -1.54175400      2.85414400
H          -4.94280400     -0.30566200      3.08833000
H          -4.38240300     -3.20005300      2.15145300
H          -3.14397900     -1.94316000      2.37818100
H          -4.05459400     -2.55822200      3.77893800
