18
b3lypvdz=-272.798211831707 
O          -2.97941400      1.10374100     -1.15796100
C          -5.12140300      1.59631100     -0.11462300
C          -3.62770600      1.36144000      0.08382400
C          -2.62069400     -0.25041900     -1.38488300
C          -1.90531300     -0.33773600     -2.72928600
C          -2.80177700     -0.00381100     -3.92330700
H          -5.60684200      1.88358400      0.83403100
H          -5.28803100      2.40464500     -0.84413500
H          -5.61914100      0.68948200     -0.49658400
H          -3.15527000      2.26080100      0.51845400
H          -3.45318600      0.53202200      0.79650700
H          -1.95307300     -0.61219100     -0.57619600
H          -3.51919500     -0.90495700     -1.38329300
H          -1.48406400     -1.35292700     -2.83692200
H          -1.04806800      0.35775000     -2.69696800
H          -3.63468400     -0.72210900     -4.01455500
H          -2.23153100     -0.02988400     -4.86642500
H          -3.24030800      0.99995600     -3.81107600
