9
b3lypvdz=-2691.244618931373 
Br          8.95359800     -2.43101200      0.74043600
C           5.64661400     -1.85637200      0.34408500
C           6.64893800     -0.74642000      0.27258300
C           7.97465700     -0.81807500      0.40608000
H           5.07848600     -1.93054500     -0.60092200
H           6.12426200     -2.82643900      0.54254600
H           4.90442600     -1.65885000      1.13799000
H           6.25196100      0.25885200      0.07741800
H           8.62605700      0.05336100      0.32988300
