18
b3lypvdz=-326.962439681843 
O           0.43147400      1.34366900     -1.06924400
N          -0.81242900     -0.50060600     -0.58226100
C          -2.00699500     -0.07141500     -1.29619000
C          -1.96474600     -0.31879900     -2.81264300
C          -3.31275700     -0.02968900     -3.47364900
C           0.33529800      0.24547300     -0.53676900
C           1.49272800     -0.39642300      0.21455300
H          -0.79983800     -1.43075700     -0.18392200
H          -2.14247800      1.00530500     -1.10351600
H          -2.86644200     -0.59869000     -0.85008300
H          -1.66543300     -1.36584600     -3.00098900
H          -1.17647700      0.32012400     -3.24365900
H          -4.10802300     -0.67200700     -3.05767600
H          -3.27865400     -0.20807400     -4.56079200
H          -3.62129200      1.01852300     -3.31724000
H           2.19187400     -0.84238300     -0.51280300
H           2.03786000      0.39173500      0.75324800
H           1.17983000     -1.17774000      0.92363400
