12
b3lypvdz=-194.233840216513 
O          -2.52791200      1.17750200     -0.88191200
C          -3.20984500     -0.01053300     -3.50975000
C          -1.92892200     -0.23574400     -2.70286600
C          -2.14500000     -0.15887800     -1.19598300
H          -2.72197800      1.22017400      0.06480100
H          -3.96472200     -0.78389100     -3.28360300
H          -3.01194000     -0.04202900     -4.59383000
H          -3.65347600      0.96681600     -3.26249200
H          -1.49119600     -1.22110000     -2.94538500
H          -1.17306800      0.52219700     -2.97541900
H          -1.21367300     -0.44653200     -0.66596200
H          -2.93016800     -0.88518300     -0.89450000
