13
b3lypvdz=-195.180036361792 
C           5.14170900      0.93128200      0.02397700
C           6.55377200      0.59013000     -0.11003400
C           7.54905200      1.49310400     -0.07719200
C           4.12112300     -1.40763300     -0.20668800
C           4.09466800      0.08138200     -0.01243100
H           4.92672800      1.99566700      0.17818800
H           6.81326900     -0.46610200     -0.24058600
H           8.59378100      1.18792100     -0.17707400
H           7.34769900      2.56230800      0.05050200
H           3.43792900     -1.69959300     -1.02344500
H           3.76025500     -1.93078400      0.69816900
H           5.12031100     -1.79789700     -0.44766300
H           3.09630400      0.51381500      0.12557800
