18
b3lypvdz=-289.80338620002 
C           2.70368800      0.51968300      0.17241200
C           5.53444200     -1.79480800      0.38462700
N           3.16405600     -2.20501800     -0.09541400
C           1.51864800     -0.40866700      0.08606800
C           4.30368200     -1.32581000     -0.39869000
C           1.89616400     -1.70347100     -0.63478400
C           3.95372100      0.10343600     -0.06445400
H           2.51651200      1.56394300      0.44834200
H           6.40980400     -1.16186800      0.15944100
H           5.79731400     -2.83343700      0.11878100
H           5.34145200     -1.75533200      1.46937700
H           3.35805800     -3.12626500     -0.49120500
H           0.68428400      0.08538200     -0.44539700
H           1.15396400     -0.63897400      1.10550600
H           4.56539000     -1.36181400     -1.48719900
H           1.11601900     -2.46514200     -0.46666600
H           1.94175200     -1.51312300     -1.73361300
H           4.78844900      0.81168400     -0.00563100
