16
b3lypvdz=-234.453050769966 
C           2.55128900      0.34701000      0.16159800
C           5.56553800     -1.58069000      0.55262800
C           6.76412400     -0.67332700      0.50790600
C           8.00399800     -1.05035300      0.18025800
C           4.44098800     -1.20654400     -0.44483600
C           3.82226500      0.14394400     -0.19833600
H           1.85476700     -0.48758200      0.29682000
H           2.15455300      1.35093800      0.33567300
H           5.88644000     -2.61770100      0.35434800
H           5.13371900     -1.56200300      1.57125300
H           6.58577600      0.37518700      0.77814400
H           8.23593800     -2.08571300     -0.09137600
H           8.83437400     -0.33914200      0.16776500
H           3.65417100     -1.97894400     -0.39480100
H           4.86383300     -1.23838800     -1.46669800
H           4.47622600      1.01530800     -0.32984500
