14
b3lypvdz=-233.245331325687 
C           2.60870100      0.50417800      0.09183100
C           5.03766700      1.00032300      0.04464500
C           6.32456700      0.57673500      0.04613200
C           7.53266100      1.40510300      0.00647800
C           7.60496800      2.74756900     -0.03727500
C           3.89520500      0.10545200      0.08979200
H           1.79036700     -0.21841800      0.12939800
H           2.33642700      1.56367400      0.05701100
H           4.81428900      2.07397800      0.00589500
H           6.50318300     -0.50477800      0.08328600
H           8.47380900      0.84336300      0.01512500
H           6.71553700      3.38466800     -0.04834500
H           8.57192800      3.25512700     -0.06583100
H           4.11879000     -0.96867500      0.12415800
