17
b3lypvdz=-272.52388780783 
C           2.72431800      0.46537700      0.35833300
C           5.07485500      1.17815400      0.03391500
C           6.38742100      0.68705000      0.52290900
C           7.58366300      1.07772500      0.06260700
C           4.89076700      2.46966900     -0.30524100
C           4.31870800     -1.17666500     -0.63395700
C           3.96871800      0.17711900     -0.05745900
H           1.91367700     -0.26255500      0.25920600
H           2.48118800      1.42662200      0.81640600
H           6.35086600     -0.06829400      1.31856700
H           8.50886700      0.68786300      0.49440600
H           7.67463900      1.78728300     -0.76549000
H           5.68538000      3.20788400     -0.17045100
H           3.94205300      2.82038600     -0.71698400
H           3.43403300     -1.82915700     -0.68029900
H           5.08839000     -1.68526100     -0.02854500
H           4.74025500     -1.08049900     -1.65052200
