15
b3lypvdz=-250.514242183351 
C           2.68324800      0.54048300      0.15519800
N           3.16197000     -2.19637700     -0.06123000
C           1.50786400     -0.40230500      0.06905300
C           4.28613900     -1.30247100     -0.36134500
C           1.90073200     -1.70711800     -0.62742900
C           3.93935400      0.12921700     -0.05523400
H           2.48312700      1.58761700      0.41039500
H           3.36862100     -3.11841300     -0.44692400
H           0.67497800      0.07547300     -0.47949600
H           1.13337500     -0.61983900      1.08779300
H           5.14909300     -1.60859900      0.25829900
H           4.62574000     -1.37029300     -1.42533100
H           1.12108800     -2.46937100     -0.45899700
H           1.96068900     -1.53266100     -1.72898600
H           4.77188200      0.84005800     -0.00016600
