20
b3lypvdz=-290.981913689948 
C           5.62192900     -2.03103200      0.40847900
C           4.58031400      1.18366900     -0.22698900
C           3.29847800     -3.54592400     -0.40208400
N           3.17607100     -2.12535600     -0.10687500
C           4.41941400     -1.34960700     -0.26971100
C           2.08056300     -1.54926600     -0.87838000
C           4.22388700      0.02610100      0.33552800
H           6.48950800     -1.35534900      0.37189300
H           5.90513600     -2.96599600     -0.09799100
H           5.40149500     -2.25977000      1.46492900
H           5.02497600      1.22362700     -1.22690500
H           4.44617500      2.13487000      0.29552300
H           3.61950000     -3.75742800     -1.44986900
H           4.00487000     -4.03901600      0.27972300
H           2.31633300     -4.02288100     -0.25419500
H           4.67143800     -1.22573200     -1.35048300
H           1.96133000     -0.48372000     -0.63432000
H           1.14062600     -2.06856700     -0.63105200
H           2.23404500     -1.62849000     -1.98150200
H           3.77331200      0.01736900      1.33588000
