19
b3lypvdz=-307.033831865194 
C           5.39728200     -1.55763000      0.68458300
C           6.44709900     -0.48257500      0.63122900
C           3.55632400     -3.71975300     -0.58896700
C           7.71123600     -0.69422700      0.22550700
N           3.21275900     -2.34896000     -0.23023300
N           8.70460600      0.27302400      0.02810400
C           4.30768300     -1.39174900     -0.38948900
H           5.88713700     -2.53995900      0.56957400
H           4.89166300     -1.57000000      1.66796600
H           6.14113000      0.53479200      0.91263000
H           4.03132500     -3.82525900     -1.59266000
H           4.25654000     -4.14873700      0.14596200
H           2.64887100     -4.34377800     -0.56939600
H           8.02770400     -1.70594400     -0.05868700
H           2.43367800     -2.04727900     -0.81559100
H           8.50442100      1.15723200      0.49349500
H           9.63443500     -0.04736600      0.29268700
H           3.87585300     -0.37928400     -0.29959700
H           4.79295400     -1.44364700     -1.39271600
