16
b3lypvdz=-362.821827437995 
O          -2.42450700      1.02328200     -0.39618400
O          -7.09105100      0.57820500      1.68334800
N          -4.25905700     -0.42435700     -0.11811800
C          -3.78651900      0.94885700     -0.03909400
C          -5.33717900     -0.85579400      0.78380100
C          -6.53564800      0.09406000      0.72555700
C          -4.85804400     -1.10593900      2.21508700
H          -1.98355700      0.31708200      0.10350300
H          -4.42940800     -0.70501300     -1.08242700
H          -3.97554800      1.31115200      0.99095600
H          -4.29885400      1.64157400     -0.73244800
H          -5.70865500     -1.81112900      0.36513500
H          -6.86146000      0.34016600     -0.32349200
H          -4.03725000     -1.83870000      2.21558700
H          -5.68504100     -1.48719300      2.83220700
H          -4.49892300     -0.17935200      2.68928100
