16
b3lypvdz=-234.466758294224 
C           5.56384900     -1.92175800      0.23876900
C           5.20450800      1.04650700     -0.09084200
C           5.10500000      2.48763600     -0.28700100
C           6.06927600      3.37002300      0.02448700
C           4.22615100     -1.30924800     -0.17639800
C           4.20943300      0.18253500     -0.36715200
H           6.34079600     -1.73430000     -0.52087700
H           5.47234800     -3.01246900      0.36452400
H           5.92213500     -1.50489900      1.19442100
H           6.15327700      0.67647200      0.31353500
H           4.16416700      2.85339100     -0.71762100
H           7.01954000      3.04157500      0.45750900
H           5.94013500      4.44133700     -0.14659000
H           3.44804100     -1.57146500      0.56866100
H           3.87203200     -1.78449100     -1.11171100
H           3.27231200      0.59305600     -0.76681500
