15
b3lypvdz=-324.756543259618 
O          -2.75681300      1.41075000     -0.82426700
O          -3.68596600      1.40964800      1.33110100
N          -6.23738200      1.20364100      0.19767200
C          -5.09726900      1.71971600     -0.56617800
C          -3.84739500      1.01944600     -0.02595500
C          -4.94501400      3.24661600     -0.56898200
H          -1.97494300      0.91563400     -0.54068400
H          -3.18193300      0.72566800      1.79328200
H          -7.09281900      1.66342800     -0.12164200
H          -6.11611000      1.49337700      1.17267200
H          -5.21242900      1.36963600     -1.60713400
H          -4.00515500     -0.07645900     -0.08053200
H          -5.86277700      3.71916100     -0.95730500
H          -4.76260800      3.62151800      0.45103700
H          -4.10178700      3.56021800     -1.20298400
