16
b3lypvdz=-362.874761175245 
O          -2.58024700      0.98088900     -0.82132200
O           0.15322500      1.30694300     -0.58054800
N          -0.91307000     -0.69850200     -0.65317100
C          -2.06807500     -0.18002700     -1.41490300
C          -1.70842300      0.02825500     -2.88955400
C           0.12190800      0.10818200     -0.28836700
C           1.25004600     -0.56675200      0.47109200
H          -1.81697100      1.59179300     -0.78203500
H          -0.91317400     -1.66743700     -0.36077800
H          -2.85732600     -0.94452500     -1.32037800
H          -2.59221200      0.39926300     -3.43092600
H          -1.36986900     -0.91163500     -3.35581400
H          -0.90202100      0.77225400     -2.97696900
H           1.99680800     -0.94224800     -0.24899100
H           1.74378900      0.17798400      1.10952400
H           0.90571300     -1.41413900      1.08354000
