18
b3lypvdz=-326.953838321064 
O          -3.62713700     -2.48341600     -0.88580400
N          -3.99729100     -0.50272000      0.21917400
C          -5.26529500     -0.85698900      0.84600200
C          -3.29986000     -1.34470000     -0.59525900
C          -5.16920200     -1.09699500      2.36008800
C          -4.22332000     -2.21770100      2.81303200
C          -4.56092200     -3.61244800      2.27427500
H          -3.61732800      0.42495000      0.37205900
H          -5.99259200     -0.05069000      0.65052400
H          -5.62218200     -1.75537100      0.32324300
H          -2.37451000     -0.86285500     -0.99389100
H          -6.19187900     -1.30597300      2.72486600
H          -4.85679100     -0.15500400      2.84983500
H          -3.18821100     -1.95627900      2.52856300
H          -4.23955500     -2.23531300      3.91769800
H          -4.39425400     -3.67519000      1.18701900
H          -5.61104200     -3.88050700      2.48563500
H          -3.92492700     -4.37450000      2.75194400
