14
b3lypvdz=-212.429331223766 
C           2.78299600      0.51072800      0.33512800
C           5.45800800     -1.75802700      0.47026800
N           3.16261500     -2.24761900     -0.21834400
C           4.30243500     -1.35730400     -0.45898200
C           3.91606500      0.08905300     -0.23276200
H           2.03368700     -0.20020900      0.69008800
H           2.57724300      1.57580100      0.47296700
H           6.32106100     -1.08537200      0.34235400
H           5.79909100     -2.78413700      0.24807800
H           5.12417600     -1.71700900      1.51963200
H           2.44465600     -2.07316700     -0.92668000
H           3.45859800     -3.21538600     -0.36737300
H           4.69431100     -1.41775800     -1.50165000
H           4.66366000      0.81870500     -0.56842500
