18
b3lypvdz=-326.947489418802 
O          -3.53954400     -2.49014900     -0.76460900
N          -4.04047200     -0.43476000      0.13884700
C          -3.67659000      0.96194700      0.24451700
C          -5.27828100     -0.89949100      0.76476600
C          -3.28863900     -1.30918800     -0.59933800
C          -5.17727700     -1.10651300      2.28268500
C          -4.12427500     -2.13071200      2.70156800
H          -2.72749200      1.13126600     -0.28581500
H          -3.54101800      1.27355100      1.29445900
H          -4.44250700      1.61769500     -0.20809000
H          -6.07420600     -0.16913300      0.53657400
H          -5.52981500     -1.85024900      0.27267500
H          -2.39918100     -0.80710300     -1.04983900
H          -6.17507000     -1.42604200      2.63364300
H          -4.97362500     -0.14044000      2.78112900
H          -4.27825000     -3.09397200      2.18900100
H          -3.10949100     -1.78347000      2.44630200
H          -4.15556700     -2.30643700      3.78872400
