13
b3lypvdz=-286.452679280688 
C           2.68651900      0.53062100      0.14865300
O           0.34931900      1.31968300     -1.18457900
N          -0.89129800     -0.43908300     -0.45839000
C           0.28266700      0.26157700     -0.58285200
C           1.48584100     -0.37424400      0.12362300
C           3.94433500      0.14133200     -0.06990700
H           2.47808200      1.58161700      0.37500800
H          -1.68028800     -0.12084200     -1.00995600
H          -0.91733000     -1.37884200     -0.08414300
H           1.72880500     -1.32949800     -0.37546300
H           1.17576600     -0.63018600      1.15611200
H           4.19520900     -0.89522200     -0.32049700
H           4.77237300      0.85328600     -0.01320900
