19
b3lypvdz=-252.93470760687 
N          -4.03531200     -0.81930600      0.03926900
C          -5.30403700     -1.05958800      0.74079100
C          -5.13167000     -1.12399300      2.26357100
C          -4.24466900     -2.24283800      2.86126900
C          -4.65053800     -3.64652200      2.38688200
C          -2.73955100     -2.01349600      2.65651700
H          -3.66324500      0.09194500      0.32172600
H          -4.20840300     -0.74256900     -0.96570000
H          -6.08900300     -0.30105200      0.52235100
H          -5.70554800     -2.02110400      0.37508000
H          -6.14486300     -1.21923100      2.69642800
H          -4.74758100     -0.14779100      2.62041000
H          -4.43106400     -2.20490500      3.95304500
H          -4.42186900     -3.79250800      1.31659300
H          -5.72824400     -3.83394600      2.53752200
H          -4.09661800     -4.41795000      2.94653000
H          -2.14881100     -2.74375200      3.23553700
H          -2.46771600     -2.09697300      1.59365900
H          -2.43905700     -1.00652100      2.99722100
