14
b3lypvdz=-287.438928365817 
C           5.05705800      1.10869300      0.00373400
C           6.29204800      0.46443900      0.10529800
C           7.49156200      1.20359200      0.06872800
C           4.98769700      2.49838000     -0.14537200
C           7.41463300      2.60023400     -0.09447900
N           8.72826400      0.57466100      0.24998700
C           6.17573000      3.23569500     -0.19702400
H           4.13858400      0.51621300      0.04220100
H           6.32832500     -0.62337100      0.22978100
H           4.02073700      3.00076200     -0.22974700
H           8.33483500      3.19204400     -0.14015300
H           8.74538800     -0.40337500     -0.02300800
H           9.51774000      1.08096200     -0.13887000
H           6.13900100      4.32127100     -0.32687700
