14
b3lypvdz=-249.546093906058 
O          -3.51795400      1.35437100      1.32867300
N          -6.12037300      1.41103100      0.25654200
C          -4.95330000      1.84538800     -0.49630500
C          -3.72380300      1.06972800     -0.05492200
C          -7.31252700      2.19658600     -0.01824300
H          -2.82476200      0.76555200      1.65760100
H          -5.87920400      1.48612500      1.24677500
H          -4.74315600      2.93625400     -0.38786200
H          -5.12208600      1.65617700     -1.57329400
H          -2.85265000      1.38227000     -0.66559600
H          -3.89499400     -0.01205700     -0.22076500
H          -7.63892600      2.02972000     -1.06043500
H          -8.13213000      1.86895100      0.64003200
H          -7.18373600      3.29640700      0.11349800
