14
b3lypvdz=-361.663993813321 
O          -3.04793200     -2.05827600      0.06820000
O           0.25159900      1.28236300     -1.10023600
N          -0.83492300     -0.62115100     -0.54202600
C          -2.09366800     -0.17906400     -1.07882300
C          -3.21113700     -1.08932000     -0.63948700
C           0.27632600      0.17627400     -0.57721800
C           1.53308500     -0.41894100      0.03818400
H          -0.84248200     -1.51272400     -0.05727700
H          -2.32729800      0.85332200     -0.75289400
H          -2.09959200     -0.13753600     -2.18793800
H          -4.22225800     -0.80559600     -1.02639300
H           2.16953700     -0.82180900     -0.76757700
H           2.09457100      0.38424300      0.53625900
H           1.32747300     -1.22718400      0.75602700
