13
b3lypvdz=-377.726609563211 
O          -3.59084100     -2.08503200     -1.15482100
O          -7.38183900     -0.06339100      1.45723900
N          -3.95851700     -0.32947000      0.28387500
N          -6.29059300      1.10921400     -0.17261700
C          -5.18909900     -0.83242200      0.86778900
C          -3.23505800     -1.04371200     -0.63999600
C          -6.40317800      0.09873200      0.74991000
H          -3.49461000      0.45367300      0.73187800
H          -5.59317500      1.01531600     -0.90336600
H          -7.15806200      1.57391300     -0.42401100
H          -5.07471300     -1.07815900      1.93610700
H          -5.42501300     -1.77286400      0.34513800
H          -2.27320200     -0.53590000     -0.88932600
