17
b3lypvdz=-342.99973323164 
O          -2.56576300     -2.22396500     -0.03052300
N          -4.15164600     -0.62154000     -0.29834800
N          -0.54257900     -0.43116400     -0.43569400
C          -1.85134100     -0.12105000     -0.99831400
C          -2.86977600     -1.09002800     -0.37356900
C          -1.93666300     -0.18944100     -2.54682800
C          -1.62230700     -1.56692000     -3.13869900
H          -4.36477900      0.35822900     -0.42679700
H          -4.84421200     -1.21445200      0.14388400
H           0.19567900     -0.16949400     -1.09057100
H          -0.48941400     -1.44492000     -0.30628200
H          -2.13336000      0.90860700     -0.70225300
H          -2.93881300      0.14490500     -2.86812400
H          -1.22563300      0.55935100     -2.94263500
H          -2.32665100     -2.33162900     -2.77794200
H          -1.67430900     -1.54429800     -4.23923300
H          -0.61003600     -1.89688900     -2.85587300
