20
b3lypvdz=-328.127734823039 
O          -3.42670300      1.40209200      1.31919500
N          -4.06028200     -0.54420600      0.13564900
C          -4.97360600      1.77505300     -0.42376800
C          -3.81694100      0.89312900      0.05000100
C          -5.31083300     -1.00683300      0.75743500
C          -5.21479400     -1.08314600      2.28784500
C          -4.17264100     -2.08644800      2.77973800
H          -2.74001200      0.79875200      1.64482100
H          -3.94708600     -0.95705100     -0.78851700
H          -5.77934800      1.81658900      0.32431400
H          -4.61172100      2.80128200     -0.58951500
H          -5.38704700      1.39274600     -1.37124600
H          -2.98513500      0.99589900     -0.67817000
H          -6.17659000     -0.37695600      0.47652700
H          -5.52194900     -2.01361400      0.35768100
H          -6.21005300     -1.35433900      2.68462300
H          -4.97567700     -0.07734400      2.66949300
H          -4.43219700     -3.11518100      2.47179100
H          -3.18288400     -1.85742000      2.35377900
H          -4.08940100     -2.07560300      3.87862400
