11
b3lypvdz=-322.36900341723 
O          -2.95829300     -2.08742200      0.07349200
O           0.28927900      1.31940000     -1.15411100
N          -0.80743400     -0.60435500     -0.61739500
C          -2.09938300     -0.16830800     -1.07956700
C          -3.17751900     -1.10932700     -0.60525000
C           0.28594800      0.20470200     -0.66373700
H          -0.77647300     -1.49696100     -0.13241900
H          -2.33076000      0.85170500     -0.71581800
H          -2.15831900     -0.10299000     -2.18521400
H          -4.21137700     -0.83768500     -0.93431400
H           1.18482900     -0.27586000     -0.20816700
