12
b3lypvdz=-211.217832196967 
C           6.27592000      0.34008100     -0.05137300
C           7.36948200      1.12568500      0.04422000
C           7.33989900      2.57262600     -0.25827800
N           8.65646800      0.64420600      0.34551000
C           6.33286300      3.39908500      0.05166900
H           5.34641300      0.75043100     -0.44399900
H           6.30612300     -0.71984700      0.21140600
H           8.23913900      2.96049100     -0.75268400
H           8.65407100     -0.30520400      0.71458500
H           9.17010000      1.25219800      0.98240200
H           5.44954100      3.03627600      0.58377400
H           6.36058100      4.45607200     -0.22383300
