16
b3lypvdz=-362.85580552667 
O          -3.39206400      1.51341300      1.43237100
O          -3.44793600     -2.39253900     -0.71918000
N          -4.09315700     -0.32982000      0.07408600
C          -3.78053400      1.07765200      0.14437100
C          -5.27072100     -0.86168300      0.77295400
C          -3.28443900     -1.19064800     -0.62771600
C          -5.01535600     -1.17714000      2.24934300
H          -2.58814200      1.02845600      1.67833300
H          -3.00231700      1.28412300     -0.61408000
H          -4.67190800      1.67734700     -0.09902600
H          -6.08256300     -0.12247700      0.66472700
H          -5.56090900     -1.77495100      0.23484600
H          -2.43900700     -0.65101400     -1.11967700
H          -4.22412900     -1.93778600      2.34796100
H          -5.92846100     -1.57929800      2.71861300
H          -4.70435900     -0.27503300      2.79527500
