15
b3lypvdz=-287.668120111474 
O          -3.50059700     -2.59922200     -0.64796400
N          -4.09993600     -0.52340500      0.12099900
C          -5.28767600     -0.92875700      0.86590900
C          -3.31975800     -1.39671400     -0.57720100
C          -5.06991700     -1.03400500      2.38164300
C          -4.04993400     -2.09695400      2.79264700
H          -3.84225600      0.45732100      0.10364500
H          -6.09548200     -0.20942100      0.65085200
H          -5.58845900     -1.90578300      0.45839700
H          -2.47902100     -0.87445800     -1.09785000
H          -6.04789700     -1.25670100      2.84605100
H          -4.75803100     -0.04718100      2.77410100
H          -4.33310800     -3.08899400      2.40381600
H          -3.04785700     -1.86383500      2.39769300
H          -3.97316900     -2.16489200      3.89006300
