15
b3lypvdz=-287.629666071374 
O           0.04896700      1.38271100     -0.87321100
C           3.37287800     -3.62217800     -0.48500300
N           3.03401800     -2.29712000      0.02019900
C           0.25121800      0.24218300     -0.53043400
C           1.58815900     -0.30543500     -0.07948800
C           1.93110700     -1.66653500     -0.69545300
H           3.62735600     -3.65665600     -1.56927300
H           4.22966600     -4.02419800      0.07776900
H           2.52156500     -4.30571400     -0.32104200
H           3.85626300     -1.69383500     -0.04804400
H          -0.58723500     -0.51059800     -0.51561900
H           2.35923000      0.45669800     -0.28059600
H           1.52921600     -0.45158600      1.01750300
H           1.05190000     -2.33342100     -0.60694800
H           2.12819200     -1.54731600     -1.78726100
