18
b3lypvdz=-326.947341004136 
O          -3.08906200     -2.36424500     -0.57969500
N          -4.06808800     -0.38137200      0.05734800
C          -5.15267100      1.79811400     -0.55436600
C          -3.97080600      1.06890700      0.09870400
C          -5.18834200     -1.03837700      0.71571200
C          -4.96552000      3.31423400     -0.55204700
C          -3.10019200     -1.14628800     -0.53667100
H          -6.08007100      1.54023200     -0.01455800
H          -5.27775100      1.42572900     -1.58627300
H          -3.03218400      1.35532600     -0.40462100
H          -3.87766900      1.39833900      1.15283600
H          -6.09404200     -1.03791800      0.08439000
H          -5.42343400     -0.52333800      1.66163000
H          -4.90901100     -2.08121200      0.91484700
H          -5.81403400      3.82679300     -1.03052800
H          -4.87461600      3.70790100      0.47464000
H          -4.05340400      3.60871100     -1.09927800
H          -2.29230200     -0.51263500     -0.97597200
