18
b3lypvdz=-364.04935920883 
O          -2.85120800      1.35503800     -0.73206400
O          -3.76751900      1.43806000      1.42729900
N          -4.03240100     -0.43689500      0.07873100
C          -5.16522300      1.78482400     -0.45902700
C          -3.94790800      1.02136500      0.08798400
C          -5.20081100     -1.03589300      0.72454100
C          -4.93505600      3.29158100     -0.59957300
H          -2.11721100      0.78498300     -0.44901400
H          -3.10979400      0.83169800      1.80626300
H          -3.96494100     -0.74296000     -0.89269200
H          -6.00813100      1.59014300      0.22254200
H          -5.42733000      1.34592200     -1.43707300
H          -6.14531800     -0.92113700      0.15616800
H          -5.33656500     -0.57303900      1.71308600
H          -5.02407700     -2.11278200      0.87909100
H          -5.85065800      3.79762900     -0.94740200
H          -4.63630700      3.73336500      0.36349800
H          -4.13384200      3.49549900     -1.32515900
