17
b3lypvdz=-288.836995810655 
O          -2.56341800      1.06062900     -0.61543700
N          -4.13473900     -0.55029700      0.09534200
C          -3.87126100      0.85913200     -0.12689600
C          -5.30385200     -0.82693200      0.94122300
C          -4.92519900     -0.99134500      2.42007700
C          -4.14094600     -2.27871700      2.68871300
H          -1.99047100      0.52810000     -0.03902100
H          -4.21754500     -1.02816700     -0.80088200
H          -4.04376200      1.38679700      0.83335400
H          -4.53634300      1.32409100     -0.88306300
H          -6.08397600     -0.04358100      0.83453800
H          -5.77039200     -1.76359600      0.58960300
H          -5.85195900     -0.98127300      3.02192700
H          -4.33810700     -0.11503600      2.74961200
H          -4.76891400     -3.16687500      2.49602200
H          -3.25993500     -2.33784000      2.03046500
H          -3.79188100     -2.33578800      3.73272300
