13
b3lypvdz=-323.577954121458 
O          -3.64960200      1.52425400      1.35508000
O          -3.28205800     -2.44427400     -0.73066700
N          -3.97030900     -0.37293500     -0.02785200
C          -5.01291000      1.80269200     -0.55176000
C          -3.80951500      1.06639700      0.02288000
C          -3.11516300     -1.24486600     -0.64696300
H          -2.92948500      1.01245800      1.75382200
H          -4.81626800     -0.77800100      0.36931100
H          -5.91412900      1.56444200      0.03601900
H          -4.84764100      2.88956700     -0.50301500
H          -5.18014800      1.50975300     -1.59928100
H          -2.91173100      1.28893400     -0.58802500
H          -2.22853900     -0.71352100     -1.07645000
