14
b3lypvdz=-303.711079158474 
O          -7.38056900     -0.08641200      1.57989100
N          -4.01492100     -0.25311000      0.23325900
N          -6.24689600      1.23927600      0.09745000
C          -5.23003300     -0.85316900      0.79583600
C          -7.29563200      2.22003000     -0.07980800
C          -6.40206600      0.13516200      0.87687500
H          -3.49130900      0.23029100      0.96606000
H          -3.39318900     -0.98064900     -0.12117900
H          -5.40539300      1.25188400     -0.47279100
H          -5.12291000     -1.30601700      1.79863000
H          -5.56164500     -1.66470000      0.12505800
H          -6.85392700      3.21242000     -0.25741000
H          -7.95935000      1.96942800     -0.92876300
H          -7.91326100      2.24876600      0.82889200
