13
b3lypvdz=-195.175000005708 
C           2.65912000      0.53359100      0.16280600
C           5.07297800      1.10554500     -0.03446500
C           5.02967100      2.43738400     -0.18346200
C           4.29313600     -1.27499600     -0.36561800
C           3.93063200      0.16243100     -0.06926400
H           1.84173300     -0.19048600      0.11000800
H           2.39190100      1.56029200      0.42398000
H           6.05601900      0.63862500      0.10746200
H           5.94141000      3.03732700     -0.12893700
H           4.09359000      2.97236000     -0.36930800
H           3.40776100     -1.92748700     -0.36303400
H           5.00752600     -1.66073000      0.38350800
H           4.79292300     -1.36575600     -1.34707400
