16
b3lypvdz=-304.891687804477 
O          -3.68594300      1.50181000      1.36282700
N          -3.99570700     -0.41762500      0.07099600
N          -6.27235500      1.30340000      0.27900100
C          -5.12546300      1.75438900     -0.51815600
C          -3.87750800      1.02915900      0.03172200
C          -4.93198200      3.27393200     -0.58103700
H          -3.17923800      0.80010700      1.80097000
H          -4.97656600     -0.63189400      0.28356400
H          -3.80231400     -0.81286500     -0.85118100
H          -7.13102600      1.73159300     -0.07138500
H          -6.14749400      1.65209500      1.23367100
H          -5.28204700      1.37366700     -1.54478300
H          -3.00358400      1.28685900     -0.60101200
H          -5.84458700      3.76973600     -0.95321700
H          -4.69110200      3.67695500      0.41553500
H          -4.10828400      3.54588500     -1.26361600
