11
b3lypvdz=-210.280512847256 
O          -3.54574400      1.60816100      1.25738700
C          -5.01044300      1.79609800     -0.58360100
C          -3.82438600      1.02766300     -0.00400700
N          -4.02879100     -0.40709800      0.17817700
H          -2.90157700      1.01605600      1.67711600
H          -5.86435900      1.74010400      0.11245100
H          -4.75252300      2.85734500     -0.73079900
H          -5.31453100      1.37235300     -1.55395700
H          -2.95632800      1.13035400     -0.69020200
H          -4.95058700     -0.56627500      0.59732800
H          -4.03923200     -0.88216200     -0.72739300
