17
b3lypvdz=-342.994519053652 
O          -2.93245000     -2.18220100     -0.33838700
N          -4.10674000     -0.27540500      0.06360600
N          -0.63544300     -0.56637300     -0.55189700
C          -5.23971100     -0.94593200      0.67949700
C          -1.93054000     -0.10638200     -1.05152700
C          -3.01912300     -0.96023700     -0.38892200
C          -2.10446100     -0.21381700     -2.57826900
H          -4.05150600      0.73436600      0.11071900
H           0.09810700     -0.28001600     -1.20402800
H          -0.65160700     -1.59086800     -0.56684900
H          -6.13321600     -0.30947000      0.58918700
H          -5.06331000     -1.17132300      1.74798800
H          -5.41525600     -1.89891000      0.16142600
H          -2.06164900      0.95148400     -0.75278400
H          -3.09374700      0.15352800     -2.90439700
H          -2.00397800     -1.26571000     -2.89179000
H          -1.33777000      0.38276500     -3.09937300
