14
b3lypvdz=-303.71050496944 
O           0.36526500      1.26597800     -1.26693000
N          -0.91135200     -0.40415700     -0.40283000
N           3.14572600     -2.21147100     -0.03483100
C           0.28008200      0.25694500     -0.58513100
C           1.48952200     -0.40688000      0.06412800
C           1.93762700     -1.67613200     -0.67092900
H          -1.74838400      0.06007300     -0.73937900
H          -1.02066300     -1.10011300      0.32437900
H           3.91311100     -1.54722600     -0.17155800
H           3.44053600     -3.05876500     -0.52620500
H           2.29753700      0.34068000      0.03705700
H           1.28677100     -0.65859300      1.11990700
H           1.14821400     -2.44519800     -0.59351200
H           2.04791000     -1.43534100     -1.75036500
