18
b3lypvdz=-289.783668232446 
C           2.39225000      0.15987600      0.03293800
C           5.53732900     -1.45879900      0.65232800
C           6.63882700     -0.43453300      0.64384000
C           7.89047300     -0.69680000      0.22905300
N           8.93461000      0.22352100      0.08221600
C           4.43739400     -1.24390200     -0.41856700
C           3.69047800      0.05319000     -0.26719400
H           1.76524700     -0.72628800      0.18060300
H           1.90498400      1.13266200      0.14490900
H           5.97794100     -2.45974700      0.49840000
H           5.04439600     -1.47730100      1.64283200
H           6.39301600      0.57978400      0.98386600
H           8.15319700     -1.70870700     -0.10460800
H           8.78525800      1.09166600      0.59415600
H           9.84692800     -0.16180400      0.31905900
H           3.72111200     -2.08320900     -0.37285300
H           4.92183600     -1.27542100     -1.41288600
H           4.27592400      0.97071200     -0.40868800
