17
b3lypvdz=-288.829285459006 
O          -2.74029200      1.08050900     -1.03934800
N          -6.13963600      1.53236200      0.38809900
C          -5.13679300      1.38164200     -0.67038300
C          -3.75446200      1.16338800     -0.05119700
C          -2.46473300     -0.23594300     -1.49368200
C          -1.51950400     -0.13371700     -2.67712200
H          -7.02287700      1.84236100     -0.02128400
H          -6.34188400      0.61956500      0.80325900
H          -5.10159100      2.31658000     -1.25479000
H          -5.34875800      0.56568500     -1.39482100
H          -3.51418400      2.02085600      0.59775300
H          -3.75565900      0.25661700      0.58992000
H          -2.00567000     -0.83157100     -0.67562100
H          -3.39675800     -0.75950300     -1.79095800
H          -1.99005300      0.42940400     -3.49898400
H          -1.24683300     -1.13498200     -3.04825700
H          -0.59831300      0.39544600     -2.38538700
