17
b3lypvdz=-272.524312917922 
C           2.77406500      0.64229300      0.00007100
C           5.25357100      0.98710500     -0.11649200
C           6.47891000      0.41852300     -0.13096500
C           5.09001500      2.46583900     -0.12336600
C           6.05610800      3.38492400      0.01000900
C           4.20308800     -1.35521400     -0.21480100
C           4.02077400      0.14238100     -0.10871900
H           1.91299800     -0.03007800     -0.00330100
H           2.55478000      1.70382600      0.10861700
H           6.62317200     -0.66056100     -0.12096800
H           7.38236500      1.02896900     -0.15586000
H           4.07446900      2.83510900     -0.27000500
H           7.10640500      3.12502800      0.16753500
H           5.81333600      4.44975700     -0.03104800
H           3.22919300     -1.85910800     -0.28477100
H           4.73076100     -1.76055300      0.66635600
H           4.80619000     -1.63523800     -1.09419400
