10
b3lypvdz=-2729.310742390145 
Br          8.88788200     -2.61820500      0.63045200
C           5.01588600      1.00790300     -0.04295900
C           6.85155100     -0.62325400      0.27191800
C           6.32355600      0.72168400      0.07773700
C           8.16472300     -0.87648200      0.38695300
H           4.25064900      0.22660600      0.00031100
H           4.67102000      2.03309000     -0.19516400
H           6.13192500     -1.44768000      0.32210500
H           7.05560600      1.53650800      0.02551800
H           8.93070100     -0.09907000      0.34823100
