14
b3lypvdz=-303.714686326235 
O          -2.59680100     -2.21532500     -0.10038500
N          -4.14843700     -0.55682600     -0.10004600
N          -0.57868600     -0.42709000     -0.59098700
C          -1.92581600     -0.09515100     -1.04405900
C          -2.90180500     -1.05717000     -0.34690400
C          -2.13358000     -0.20546900     -2.56734200
H          -4.34410500      0.43351100     -0.16213500
H          -4.81296000     -1.15366700      0.37885500
H           0.10169500     -0.15914800     -1.30418100
H          -0.53397200     -1.44737200     -0.50714800
H          -2.16587100      0.94086700     -0.73537000
H          -3.16167600      0.06239900     -2.86550300
H          -1.93120300     -1.23711700     -2.89999400
H          -1.44408300      0.47125800     -3.09789900
