12
b3lypvdz=-285.48852174845 
O          -2.74602700      1.13328500     -0.90397900
O          -3.58648300      1.53769600      1.25403100
N          -4.06288400     -0.43894900      0.15985200
C          -4.98809800      1.79263900     -0.62530100
C          -3.83655600      0.99243900     -0.02322200
H          -2.07961700      0.48866900     -0.61418000
H          -2.97832400      0.92169800      1.69451200
H          -4.87016700     -0.58074500      0.77133400
H          -4.29528600     -0.86808600     -0.73901100
H          -5.87027100      1.72814400      0.02812100
H          -4.69459100      2.84850900     -0.72245700
H          -5.23719600      1.40350200     -1.62340000
