13
b3lypvdz=-174.366833748573 
C          -5.14848800     -1.09947100      2.38374500
C          -5.29438600     -0.86155000      0.87663500
N          -3.99209700     -0.57107400      0.26450700
C          -4.19304800     -2.24057500      2.73319000
H          -6.14889600     -1.29617600      2.80931900
H          -4.79391500     -0.16395100      2.86057000
H          -6.06569200     -0.07958500      0.70476700
H          -5.68356100     -1.78412300      0.40690000
H          -3.66892800      0.34658000      0.58487200
H          -4.09726000     -0.47912700     -0.74811100
H          -4.55013600     -3.19545600      2.30792400
H          -3.19473200     -2.04786600      2.31304100
H          -4.10156200     -2.37142500      3.82364200
