16
b3lypvdz=-362.865750064197 
O          -2.69544100      0.95196800     -0.78946400
O           0.05377000      1.23475200     -0.42151600
N          -1.07392600     -0.75353000     -0.47690900
C          -2.19344000     -0.25411800     -1.30068300
C          -1.78246100     -0.15347800     -2.77876500
C          -2.94936300      0.25076100     -3.67854300
C          -0.05238900      0.05502600     -0.10029400
H          -1.92384700      1.55201500     -0.75742900
H          -1.11331900     -1.69197200     -0.09710300
H          -3.00952100     -0.98901100     -1.19400100
H          -1.36784300     -1.12778500     -3.09376500
H          -0.96033400      0.57834300     -2.85531900
H          -3.76189500     -0.49591400     -3.64513400
H          -2.62254900      0.34831500     -4.72601400
H          -3.37435100      1.21177000     -3.35059500
H           0.69361000     -0.46154300      0.54903500
