13
b3lypvdz=-195.180062151696 
C           5.55877500     -1.88257500      0.40223100
C           5.12886900      1.19765300     -0.07330100
C           6.59193600     -0.79355400      0.37816200
C           6.40113400      0.52529200      0.16703800
C           5.01204600      2.52103200     -0.28330800
H           4.53659300     -1.51627000      0.22490700
H           5.78559500     -2.64539500     -0.36474700
H           5.56877400     -2.40270100      1.37774200
H           4.21952300      0.58691200     -0.08546700
H           7.62091900     -1.13155500      0.55633400
H           7.28534800      1.17423000      0.17698900
H           5.88520100      3.18179600     -0.28692900
H           4.03758700      2.98243500     -0.46365100
