15
b3lypvdz=-324.774479734215 
O          -2.81810200      1.36645000     -0.77470600
O          -3.74604200      1.41845700      1.38320800
N          -3.98032000     -0.44833500      0.04689500
C          -5.13928500      1.73762600     -0.51506300
C          -3.90797300      1.00759900      0.04165600
C          -4.98888100      3.25768700     -0.56548100
H          -2.07660200      0.80030600     -0.50573800
H          -3.08915700      0.81621300      1.76917500
H          -4.79101300     -0.75014700      0.59219300
H          -4.12217000     -0.78823100     -0.90715800
H          -5.99767100      1.45366500      0.11618700
H          -5.32959300      1.34011600     -1.52669500
H          -5.90224500      3.73092000     -0.96110700
H          -4.79020800      3.66289400      0.43845000
H          -4.14773800      3.54108000     -1.21541500
