21
b3lypvdz=-312.084726182623 
O          -2.68238000      1.12311100     -0.74700800
C          -4.98856900      1.51196000      0.01455700
C          -3.55895900      1.09766500      0.37434600
C          -5.08099200      2.94760600     -0.51709300
C          -2.68663400     -0.07096800     -1.51504000
C          -6.47597700      3.31077300     -1.03147400
C          -1.81717000      0.15165900     -2.73886300
H          -5.62739800      1.39119000      0.90983000
H          -5.39240000      0.81315700     -0.74221700
H          -3.13283600      1.80531900      1.10655200
H          -3.55437300      0.09351000      0.84399100
H          -4.78145100      3.65113800      0.28284400
H          -4.33773800      3.07109700     -1.32336500
H          -2.29523200     -0.91193700     -0.90352400
H          -3.71592700     -0.34653500     -1.82320600
H          -7.23333400      3.23026700     -0.23194700
H          -6.50862300      4.34072500     -1.42405800
H          -6.78689200      2.63672600     -1.84818800
H          -2.22369100      0.97037100     -3.35431700
H          -1.77395600     -0.76066700     -3.35598100
H          -0.79287000      0.42503400     -2.43804000
