16
b3lypvdz=-362.846597114176 
O          -2.71994000      1.27114400     -1.09161500
O           0.66408200      0.86220500     -1.29055000
N          -1.07885700     -0.36827900     -0.45119400
C          -5.04829500      1.50987800     -0.47119300
C          -3.63624500      1.19488800      0.00271700
C          -2.06466100      0.07097900     -1.42300500
C           0.22332900      0.06098700     -0.49188800
H          -1.32464400     -1.07830700      0.22898800
H          -5.75773600      1.48467800      0.37365500
H          -5.08531000      2.51088400     -0.93091800
H          -5.38049300      0.78040500     -1.22767200
H          -3.31063200      1.92251100      0.76797300
H          -3.60319500      0.19581100      0.47788900
H          -2.78358200     -0.75654500     -1.56884000
H          -1.53565300      0.28074200     -2.36229600
H           0.84623200     -0.42468100      0.29964800
