18
b3lypvdz=-326.96339158538 
O          -3.33350000     -2.11839600     -0.81154300
N          -4.16468500     -0.22526300      0.14598200
C          -5.27247700     -0.87913800      0.83108000
C          -2.11385100     -0.07488400     -1.18580100
C          -3.25086200     -0.91285000     -0.60620200
C          -4.95210600     -1.23821500      2.28590900
C          -1.90797000     -0.36355000     -2.67608000
H          -4.01822100      0.76552300      0.29537800
H          -6.15309100     -0.21753400      0.77553200
H          -5.49783300     -1.78963300      0.25656300
H          -2.27518600      1.00258900     -1.00606900
H          -1.20373200     -0.35914000     -0.62822000
H          -4.10708600     -1.94367900      2.32866600
H          -5.82063700     -1.71297000      2.77237000
H          -4.68206800     -0.34330000      2.87240200
H          -2.79144300     -0.06694200     -3.26602200
H          -1.75028500     -1.44128400     -2.82925800
H          -1.03956700      0.18546400     -3.07148600
