18
b3lypvdz=-364.021436086853 
O          -2.96136900      0.93962500     -1.21362200
O          -3.57166300      1.00848500      1.05541000
N          -6.23525400      1.45234800      0.29897000
C          -5.11790600      1.66469000     -0.60623700
C          -3.98207100      0.71348700     -0.27143600
C          -1.83317900      0.10472600     -1.05598800
C          -7.29109500      2.43879200      0.12445200
H          -3.20967000      0.20856700      1.46014600
H          -5.86068900      1.52405300      1.24767200
H          -4.70061800      2.69712600     -0.57325500
H          -5.43467200      1.47210700     -1.64560900
H          -4.32502200     -0.34176500     -0.33121900
H          -1.32308500      0.27893100     -0.08951400
H          -2.10427600     -0.97004800     -1.12916800
H          -1.13128400      0.34939900     -1.86572900
H          -7.75686100      2.31868700     -0.86991800
H          -8.07977700      2.28207100      0.87684200
H          -6.94371100      3.49561800      0.19600200
