14
b3lypvdz=-249.553663768749 
O          -3.17577100      1.32912800      1.36405300
N          -4.10531600     -0.43649100      0.08686200
C          -3.76695400      0.96915600      0.13149900
C          -5.33699700     -0.82677300      0.78727500
C          -5.10426400     -1.06441200      2.28065400
H          -2.48830800      0.66352000      1.53223700
H          -4.13574300     -0.74163500     -0.88457000
H          -3.08839900      1.17052600     -0.72135000
H          -4.64377600      1.64300400      0.04216200
H          -6.13570900     -0.06563900      0.64985800
H          -5.70527000     -1.75565900      0.32175500
H          -4.32717900     -1.83316600      2.42535900
H          -6.02791000     -1.40993600      2.77395000
H          -4.75900400     -0.14402300      2.77285600
