10
b3lypvdz=-155.885190446488 
C           4.92082500      2.60846100     -0.21619800
C           7.43808200      2.57272500     -0.03153900
C           6.11946500      3.21212900     -0.16793900
C           7.69802100      1.26247600      0.10404800
H           4.80394100      1.52178500     -0.15570400
H           4.00628500      3.19679900     -0.32177100
H           8.28957600      3.26326900     -0.04448900
H           6.14308600      4.30598600     -0.24229600
H           8.72592800      0.90434200      0.19857000
H           6.90899100      0.50502600      0.13241800
