15
b3lypvdz=-287.679825385207 
O          -7.60616100     -0.09211100      1.11148000
N          -6.14145300      1.19633300     -0.05021600
C          -5.33348200     -0.88314600      0.97248800
C          -6.47439800      0.09231700      0.68951100
C          -5.15292400     -1.14924700      2.47307400
C          -4.14826000     -2.26556400      2.75709400
H          -5.24102900      1.28653400     -0.50088500
H          -6.89330400      1.81147500     -0.34096200
H          -4.38507600     -0.54145500      0.52175700
H          -5.60538700     -1.83103400      0.47406600
H          -6.14016500     -1.39974400      2.89418700
H          -4.82498600     -0.21870000      2.97183000
H          -4.47768000     -3.21909000      2.30821600
H          -3.15214500     -2.03223600      2.34132400
H          -4.02655000     -2.43093200      3.83973800
