18
b3lypvdz=-364.043399032643 
O          -3.09767100      1.03716700     -1.06031000
O          -2.86465500      1.51923400      1.23544400
N          -1.25296200     -0.22040600     -0.30448600
C          -3.72553400      1.12054900      0.21508900
C          -2.36665000     -0.15178100     -1.26969400
C          -1.93642300     -0.16976000     -2.73796800
C          -3.09637900     -0.12865600     -3.73431900
H          -2.13221100      0.87149400      1.19916500
H          -0.51127300      0.41800400     -0.60973600
H          -0.84140000     -1.15737900     -0.31234300
H          -4.20272000      0.13727700      0.43100800
H          -4.50437600      1.89110600      0.11898200
H          -3.01283500     -1.03082500     -1.05579400
H          -1.32230100     -1.07345800     -2.90085900
H          -1.27166400      0.69849900     -2.90254000
H          -3.76130800     -1.00311300     -3.62339000
H          -2.71811800     -0.12461500     -4.76971600
H          -3.70592100      0.77496200     -3.58223300
