18
b3lypvdz=-289.773459043475 
C           5.19648900      1.00374700     -0.51838900
C           3.33928600     -3.49725100      0.20544300
C           4.99721400      2.44596700     -0.51790600
N           3.22137500     -2.04648200      0.17533800
C           5.98312200      3.35522100     -0.58890300
C           4.37254400     -1.39199600     -0.44054100
C           4.20118900      0.10422400     -0.44027400
H           6.23529600      0.65282400     -0.58284100
H           3.53926600     -3.96574300     -0.78550400
H           4.16859400     -3.78720200      0.87321100
H           2.41821700     -3.93900200      0.61763400
H           3.95766300      2.78960100     -0.44288600
H           2.38627500     -1.79432300     -0.35850600
H           7.03215800      3.05040600     -0.66459000
H           5.77102200      4.42698000     -0.57330600
H           5.27124200     -1.66835700      0.14011800
H           4.57335700     -1.74957600     -1.48166200
H           3.16769100      0.46806300     -0.36183500
