15
b3lypvdz=-250.491720136756 
C           2.65887200      0.53752100      0.29588200
C           5.05777700      1.09683200     -0.10041300
C           5.01248400      2.42499300     -0.27421300
N           3.11158100     -2.17892200     -0.25990600
C           4.27101300     -1.28952000     -0.25988500
C           3.91202900      0.16468000     -0.01036800
H           1.86353700     -0.20540200      0.36699700
H           2.40631500      1.57686100      0.51735200
H           6.04623400      0.62346800     -0.02772000
H           5.92888500      3.01882700     -0.30913100
H           4.06679600      2.96253500     -0.38957600
H           2.58700800     -2.05076800     -1.12983500
H           3.43875700     -3.14688800     -0.28462800
H           4.95142100     -1.61273200      0.55171900
H           4.88869000     -1.33278500     -1.18617700
