12
b3lypvdz=-248.355804727733 
O          -7.27420000      0.28172800      1.43905600
N          -4.05977700     -0.25797000      0.20986600
C          -5.21958800     -0.87331400      0.86838400
C          -6.42801500      0.02102200      0.61745100
C          -5.06196000     -1.22998400      2.34636200
H          -3.71531300      0.51795700      0.78240800
H          -3.29323600     -0.93213200      0.17007000
H          -5.44883100     -1.78987600      0.28406800
H          -6.46676200      0.43817800     -0.42398000
H          -4.25716100     -1.96979200      2.48693200
H          -5.99413500     -1.63958700      2.76579000
H          -4.81112100     -0.33023000      2.93439200
