7
b3lypvdz=-190.854216872864 
O          -2.68674400      1.08825300     -0.88516200
O          -3.52303300      1.60987800      1.26069400
C          -3.76961100      1.01664900      0.00915400
H          -2.01934400      0.44108300     -0.61183900
H          -2.95851800      1.01410700      1.77623900
H          -4.11495100     -0.03322100      0.13047900
H          -4.57330000      1.61035200     -0.44926500
