22
b3lypvdz=-292.215927864582 
N          -4.19036900     -0.46143700      0.19977600
C          -5.07076500      1.78210400     -0.62194000
C          -4.07400500      0.99283300      0.24216400
C          -5.36770300     -1.03487000      0.85719500
C          -4.85309200      3.29134300     -0.54844000
C          -5.14910400     -1.22692500      2.36471000
C          -4.02122000     -2.20267200      2.69374100
H          -4.13767300     -0.77749700     -0.76751100
H          -6.10152600      1.54090800     -0.30954000
H          -4.97443800      1.43870700     -1.66898100
H          -3.04607200      1.26002300     -0.06569900
H          -4.16648500      1.31568600      1.29409100
H          -6.28812400     -0.43518500      0.69695400
H          -5.56156600     -2.01968900      0.39810300
H          -5.53558600      3.83841200     -1.21643900
H          -5.01656100      3.67133200      0.47501700
H          -3.82244300      3.56190600     -0.83738100
H          -6.09909000     -1.57114500      2.81124100
H          -4.93180700     -0.24783500      2.82825200
H          -4.25016900     -3.21693100      2.32110000
H          -3.08795900     -1.87296500      2.21160900
H          -3.85014100     -2.27400300      3.77978000
