17
b3lypvdz=-272.530529805968 
C           2.68658800      0.50059400      0.24822500
C           5.10048300      1.09447300     -0.10734200
C           6.70113300     -0.78383200      0.39437800
C           6.43088300      0.50192800      0.12437400
C           4.99672300      2.43130500     -0.27498500
C           1.48595600     -0.38495700      0.10607500
C           3.92195700      0.20297300     -0.18652000
H           2.52413900      1.46069900      0.75324100
H           5.91806000     -1.54052900      0.48502500
H           7.72876600     -1.12040800      0.54934200
H           7.26452900      1.21167700      0.06431800
H           5.87646900      3.07526400     -0.19911100
H           4.04048400      2.90586600     -0.50179700
H           0.68808700      0.11894000     -0.46915800
H           1.72977700     -1.32905900     -0.40572800
H           1.04691800     -0.62681700      1.09070800
H           4.08964900     -0.77691500     -0.64894400
