20
b3lypvdz=-328.122355110622 
O          -3.29112900      1.43922100      1.30959700
N          -4.02630200     -0.48304000      0.13496300
C          -3.79989400      0.94615800      0.08787500
C          -5.25703200     -0.91613400      0.81390900
C          -5.11718000     -1.11345500      2.33147200
C          -4.25611800     -2.30758100      2.77842500
C          -2.74142300     -2.10031300      2.69825700
H          -2.54203300      0.86584800      1.53858600
H          -3.99811800     -0.85467300     -0.81315200
H          -3.10461000      1.14254700     -0.75269400
H          -4.72515200      1.53382800     -0.08532900
H          -6.08124300     -0.19457300      0.62568000
H          -5.56873900     -1.87415500      0.36313600
H          -6.13911000     -1.26404600      2.72503900
H          -4.73816900     -0.18132100      2.78298700
H          -4.54021000     -3.19556200      2.18216400
H          -4.52399800     -2.55547500      3.82124900
H          -2.19765900     -2.97488800      3.09287900
H          -2.41551700     -1.92114900      1.66343100
H          -2.43246400     -1.22873500      3.30272600
