14
b3lypvdz=-270.383087683127 
C           2.68663100      0.51242700      0.01467400
O           0.14018200      1.37190900     -0.98730100
C           0.20045600      0.28514300     -0.46351500
C           1.44980100     -0.33304400      0.13245000
C           4.40369600     -1.33641700     -0.38048000
C           3.93720100      0.07995800     -0.19980400
H           2.51846600      1.58913800      0.11755400
H          -0.71384800     -0.36015100     -0.36854500
H           1.56837500     -1.33171200     -0.32539800
H           1.19781200     -0.54593700      1.19349600
H           3.59184600     -2.07303800     -0.28832700
H           5.17355600     -1.59364000      0.36790000
H           4.87992100     -1.47388600     -1.36828900
H           4.72630500      0.84015100     -0.25381400
