13
b3lypvdz=-323.568008582433 
O          -3.48357800      1.47621700      1.45773000
O          -3.37179800     -2.37456300     -0.81835400
N          -4.06166900     -0.35012000      0.03907800
C          -3.80174600      1.06580600      0.14488600
C          -5.21962600     -0.90375200      0.72953400
C          -3.23693100     -1.17298400     -0.68803100
H          -2.66023400      1.03148200      1.71506700
H          -3.00680500      1.31410900     -0.58292500
H          -4.70690000      1.63784500     -0.11671000
H          -6.15620800     -0.54489900      0.26818200
H          -5.20747200     -0.59589900      1.78626200
H          -5.16911600     -1.99692000      0.64755600
H          -2.40201700     -0.59752200     -1.15687600
