14
b3lypvdz=-249.54978378338 
O          -2.58944100      1.33724200     -0.99834600
N          -1.30776400     -0.53228900     -0.33565700
C          -4.97913600      1.47626400     -0.54038300
C          -3.58163600      1.27021900      0.03168000
C          -2.07603000      0.08962800     -1.40536600
H          -0.41209000     -0.05133500     -0.22640100
H          -1.09426800     -1.50297500     -0.57480600
H          -5.73345200      1.45334600      0.26526300
H          -5.04958400      2.44727700     -1.05783700
H          -5.23278800      0.68815000     -1.26848500
H          -3.34167000      2.06849600      0.75570600
H          -3.49795400      0.31152000      0.57096800
H          -2.88432200     -0.61697600     -1.68700400
H          -1.49626700      0.32203500     -2.32043300
