14
b3lypvdz=-307.505575994325 
O          -2.59714900      1.19465300     -0.88781600
O          -3.07235100     -2.34940100     -0.84162600
C          -2.15563900     -0.12990600     -1.17198300
C          -3.15121900     -1.16235000     -0.63470500
C          -1.95705800     -0.26870900     -2.68538600
C          -3.21865900      0.02131400     -3.50510300
H          -2.45523400      1.36902600      0.05339900
H          -1.18803600     -0.34581700     -0.67203300
H          -3.98024700     -0.71825000     -0.01528000
H          -1.60164400     -1.29384300     -2.87995100
H          -1.15187000      0.42393300     -2.98129900
H          -4.02733800     -0.69139700     -3.27244100
H          -3.00310100     -0.06422500     -4.58279200
H          -3.59305400      1.03767300     -3.30648500
