16
b3lypvdz=-362.85807852815 
O          -3.59789200      1.56152400      1.30172100
O          -3.25023700     -2.46900300     -0.54700800
N          -4.05873800     -0.38971900      0.02779900
C          -5.01811600      1.83138100     -0.56053000
C          -3.83552000      1.04945100     -0.00050100
C          -5.22015200     -0.92255300      0.73329700
C          -3.16557700     -1.25457800     -0.55276700
H          -2.81774600      1.10904200      1.65805300
H          -5.88704900      1.74758900      0.10933700
H          -4.74675400      2.89468900     -0.63915500
H          -5.29375500      1.45669600     -1.55762100
H          -2.95397100      1.20349300     -0.65151000
H          -6.12255800     -0.90917100      0.09840400
H          -5.40216000     -0.32116000      1.63530600
H          -5.00557500     -1.96282700      1.00973100
H          -2.32229900     -0.70535400     -1.03855700
