15
b3lypvdz=-287.675821088518 
O          -7.57556800     -0.30144100      1.00956000
N          -6.18296200      1.23423500      0.08657600
C          -5.24616200     -0.90296500      0.81610200
C          -7.19983200      2.27905100      0.02354000
C          -6.63534900      3.54581200     -0.60959000
C          -6.44780400      0.01774800      0.65727900
H          -5.21608700      1.50238700     -0.05694100
H          -4.40893800     -0.64909200      0.14834500
H          -4.88862500     -0.85782200      1.85883200
H          -5.57067200     -1.93559500      0.62399800
H          -8.05668000      1.89850500     -0.55633500
H          -7.58992800      2.48836800      1.03620100
H          -5.78618500      3.94214600     -0.02712300
H          -7.40790500      4.32971700     -0.64470000
H          -6.28630300      3.36184700     -1.63964500
