18
b3lypvdz=-326.925162914781 
O          -7.21198200      0.57788600      1.39423700
N          -4.08209800     -0.53195100      0.24231900
C          -5.33066900     -0.88750700      0.92244900
C          -6.35721500      0.20397000      0.62489400
C          -5.24765700     -1.19438900      2.42678000
C          -4.24301400     -2.28804800      2.81413800
C          -4.55672800     -3.68214100      2.25858000
H          -3.56092500      0.14847700      0.80168000
H          -3.47520600     -1.34755600      0.15995700
H          -5.73364500     -1.77132500      0.38602700
H          -6.24610500      0.64516500     -0.40004000
H          -6.25753900     -1.45733800      2.78623700
H          -4.98284700     -0.25877100      2.95345700
H          -3.23048500     -1.98274500      2.49046300
H          -4.20156300     -2.34022600      3.91593800
H          -4.47979300     -3.72185700      1.15735100
H          -5.57815900     -4.00047500      2.53097400
H          -3.85757000     -4.43396600      2.65885900
