12
b3lypvdz=-194.233803607821 
O          -2.70808300      1.41802700     -0.77551900
C          -5.07364300      1.67976400     -0.54702400
C          -3.82399100      0.99745500     -0.00074400
C          -4.99730800      3.20554600     -0.50415500
H          -1.91053000      1.04549500     -0.37411600
H          -5.94087600      1.31549800      0.03169500
H          -5.22326000      1.33980300     -1.58744300
H          -3.68891900      1.26223900      1.07010100
H          -3.95370100     -0.10375500     -0.05634400
H          -5.89486100      3.66674600     -0.94629100
H          -4.90522400      3.57336400      0.53273000
H          -4.11910600      3.56241700     -1.06279000
