19
b3lypvdz=-344.145505845582 
O          -3.03856600      0.68046700     -1.57070100
N          -6.09848100      1.40806000      0.33407300
N          -1.22457700      0.26644100     -0.09430300
C          -5.11786800      1.51374000     -0.74174500
C          -4.07318600      0.41133300     -0.63235800
C          -1.86663500     -0.07881300     -1.35192200
C          -7.07475400      2.48854500      0.31412000
H          -6.59471300      0.51803200      0.24791900
H          -0.62353900      1.08465400     -0.20053600
H          -0.64168300     -0.49931400      0.24317900
H          -4.60082700      2.48425600     -0.64352000
H          -5.57058100      1.50131200     -1.76006600
H          -3.66547900      0.38240100      0.39089700
H          -4.52742700     -0.58222600     -0.84961100
H          -2.10819200     -1.16252300     -1.32878500
H          -1.24694200      0.12084700     -2.24578200
H          -6.56455900      3.44808300      0.50666300
H          -7.62530900      2.59740400     -0.64878400
H          -7.81867900      2.33910100      1.11296100
