14
b3lypvdz=-2785.857145395976 
Br          8.80589800     -2.36886400      0.26497000
C           5.54663900     -1.76653000      0.46769300
C           6.53165300     -0.63250500      0.50714100
C           7.86613000     -0.68360100      0.38081800
N           8.74293600      0.39272500      0.23491900
C           4.37835000     -1.49744200     -0.48953500
H           6.06429100     -2.69249100      0.17463900
H           5.13907700     -1.94296800      1.48231200
H           6.11543700      0.37702700      0.63491300
H           8.28984700      1.28375400      0.43808800
H           9.59620900      0.29387300      0.78323500
H           3.66298400     -2.33666600     -0.48629300
H           3.82298900     -0.58938300     -0.19595400
H           4.73775900     -1.35192900     -1.52204600
