13
b3lypvdz=-265.598205255223 
O          -2.70390000      1.25613400     -0.80793200
N          -3.99218600     -0.49939800      0.04602900
N          -6.24238400      1.45138600      0.08730900
C          -5.01285600      1.69896700     -0.66890800
C          -3.84131600      0.94838700     -0.03052700
H          -2.00537300      0.65834100     -0.49845100
H          -4.67915300     -0.74370600      0.76240500
H          -4.33949700     -0.86814100     -0.84465500
H          -6.96069300      2.11849200     -0.19853500
H          -6.62021300      0.53511400     -0.16410400
H          -4.78861700      2.77800800     -0.63828900
H          -5.05427900      1.40547700     -1.74166200
H          -3.73323300      1.30383800      1.01462100
