18
b3lypvdz=-326.950465407857 
O          -7.33456100      0.15569800      1.56062700
N          -6.20345800      1.29496900     -0.05486400
C          -4.96769400      1.66504400     -0.72287000
C          -5.01911300     -0.43190100      1.29315400
C          -7.35454700      2.14727400     -0.31381000
C          -6.28752400      0.35700700      0.95323400
C          -5.28357300     -1.48111000      2.37129800
H          -4.28891200      0.80846100     -0.82267100
H          -4.42837900      2.47668600     -0.19547100
H          -5.19821900      2.02355500     -1.73901700
H          -4.24063000      0.27964500      1.62501000
H          -4.61636800     -0.90958500      0.38210800
H          -7.65606500      2.07874800     -1.37438100
H          -8.18063600      1.81227300      0.32294400
H          -7.12277500      3.20448200     -0.08332100
H          -4.35344700     -2.00432000      2.64493500
H          -6.01401000     -2.22635400      2.02089900
H          -5.70718900     -1.01457100      3.27279600
