17
b3lypvdz=-288.842353440796 
O          -3.43475300      1.48915500      1.27331600
N          -3.99356200     -0.48963500      0.11310300
C          -5.03666300      1.77783700     -0.43489500
C          -3.82656400      0.95756500      0.01483200
C          -5.21539300     -1.01090000      0.74394800
C          -5.14083800     -0.97022800      2.26970000
H          -2.73833400      0.89709000      1.59986300
H          -3.87587600     -0.89957500     -0.81251600
H          -5.82788400      1.77515100      0.32985100
H          -4.73257500      2.82173000     -0.60656100
H          -5.44855900      1.37425400     -1.37433700
H          -3.01749400      1.09773100     -0.73290700
H          -6.12864800     -0.48368400      0.40187300
H          -5.32607500     -2.05595800      0.41072800
H          -4.25846800     -1.52892200      2.62299300
H          -6.03865500     -1.42447600      2.72043900
H          -5.04735800      0.06466500      2.62847000
