15
b3lypvdz=-287.628498697449 
O          -0.07159700      1.26939000     -1.02120600
N           3.12177100     -2.15134500     -0.07290000
C           0.15074700      0.19312300     -0.51533900
C           1.49865100     -0.26945600     -0.01594800
C           4.38605100     -1.46371400     -0.31417900
C           1.96687700     -1.54863300     -0.73316900
H           3.20886400     -3.11286000     -0.40296600
H          -0.67435000     -0.56229300     -0.38925200
H           2.21380100      0.55792400     -0.14205000
H           1.40874300     -0.51470200      1.05900200
H           4.39544800     -0.48603500      0.19490100
H           5.20788400     -2.05768100      0.11499300
H           4.61017100     -1.28211100     -1.38919000
H           1.14856100     -2.29025800     -0.70072600
H           2.15107700     -1.30754700     -1.80547000
