14
b3lypvdz=-303.699578286329 
O          -3.12724300     -2.45771300     -0.56776300
N          -3.90953200     -0.40206700      0.08065000
N          -6.28762500      1.32405500      0.02571800
C          -5.03431200      1.71176900     -0.63246100
C          -3.83646400      1.04903700      0.05490400
C          -3.08600900     -1.24319200     -0.60986100
H          -4.58119700     -0.84686700      0.70108400
H          -7.05045500      1.89608500     -0.34242800
H          -6.52461900      0.36900600     -0.25743500
H          -4.91539800      2.80454500     -0.52228400
H          -4.99814300      1.48477600     -1.72056300
H          -2.91290800      1.32728600     -0.47958000
H          -3.75439000      1.43023500      1.08696100
H          -2.34610400     -0.67575300     -1.22954200
