20
b3lypvdz=-328.114493685581 
O          -2.84795500      1.08952500     -1.18854800
N          -6.11073800      1.57436200      0.52737100
C          -5.20284100      1.40251100     -0.61210700
C          -3.76882500      1.21164600     -0.11417200
C          -2.52268200     -0.24271200     -1.55199900
C          -1.55462900     -0.20488200     -2.72668300
C          -1.10687800     -1.60278100     -3.16920700
H          -7.02537100      1.88025400      0.19090200
H          -6.27553200      0.66960700      0.97514700
H          -5.23075100      2.32174900     -1.22140600
H          -5.46670500      0.56524200     -1.29441500
H          -3.47395500      2.09401000      0.47776700
H          -3.70584700      0.33067600      0.55812600
H          -2.05821400     -0.76682200     -0.68866500
H          -3.43297800     -0.81657400     -1.82908100
H          -2.03830800      0.32899600     -3.56371700
H          -0.68198100      0.40452200     -2.43224600
H          -1.95943400     -2.21410300     -3.51294800
H          -0.38757600     -1.54642200     -4.00194700
H          -0.61489900     -2.14860500     -2.34487300
