15
b3lypvdz=-287.664641173226 
O          -7.55119900     -0.27442900      1.03574100
N          -6.21971200      1.29485300      0.05880500
C          -4.94710300      1.76087200     -0.45688500
C          -5.25529100     -0.88673500      0.75185700
C          -7.31454900      2.24970800     -0.00180200
C          -6.44300600      0.06001400      0.63272200
H          -4.21230500      0.94872800     -0.48976400
H          -4.53281600      2.58213100      0.15826100
H          -5.06918100      2.14931700     -1.48492400
H          -4.89322200     -1.21161900     -0.23751800
H          -4.40926500     -0.42940100      1.28893100
H          -5.60076400     -1.76766500      1.30652200
H          -7.53340800      2.53581600     -1.04666800
H          -8.20000600      1.78159400      0.44330300
H          -7.06307200      3.16871500      0.55861900
