9
b3lypvdz=-246.19604243996 
O          -2.68124800      1.11982500     -0.89536200
O          -3.55211000      1.55629000      1.24900300
C          -3.77507700      1.01707700     -0.02542300
N          -4.10777200     -0.38805700      0.12969600
H          -2.04571600      0.43919600     -0.61370900
H          -2.99885400      0.91209200      1.72333400
H          -4.55593700      1.65678500     -0.47545800
H          -4.93429500     -0.48510400      0.72332800
H          -4.33989200     -0.79560400     -0.77870700
