21
b3lypvdz=-312.084958859854 
O          -2.77075300      1.16303000     -1.07801700
C          -5.06482200      1.42001900     -0.24560600
C          -3.57184000      1.38305600      0.07525000
C          -2.52661100     -0.20073700     -1.38619600
C          -1.90821600     -0.28788200     -2.78180300
C          -2.90022700      0.16646200     -3.85970600
C          -1.38429200     -1.70521300     -3.04636500
H          -5.65254500      1.65182000      0.65873200
H          -5.27400600      2.19547500     -0.99992000
H          -5.42388200      0.45663000     -0.64478900
H          -3.25288100      2.35594800      0.48620400
H          -3.35294300      0.61645000      0.84609300
H          -1.83665200     -0.63806300     -0.63325100
H          -3.46506200     -0.79298600     -1.35657500
H          -1.05096000      0.41081500     -2.78694500
H          -3.73890700     -0.54658100     -3.95498100
H          -2.40844600      0.23756100     -4.84437600
H          -3.32024600      1.15289700     -3.61101400
H          -2.19588700     -2.45066600     -2.96986800
H          -0.95452400     -1.78346000     -4.05858900
H          -0.59809800     -1.98937500     -2.32757800
