15
b3lypvdz=-287.662406401929 
O          -3.30909600     -2.43930700     -0.55092800
N          -4.04600600     -0.35886400      0.08276200
C          -3.83816100      1.07453700      0.04142500
C          -5.22163800     -0.88407500      0.77664100
C          -3.19077700     -1.22578700     -0.53613800
C          -4.98198600     -1.12505900      2.27026100
H          -2.88004600      1.28962200     -0.45561200
H          -3.80094900      1.50705100      1.05639400
H          -4.63909100      1.59070400     -0.51915100
H          -6.05083500     -0.17177800      0.62037500
H          -5.48701100     -1.83030400      0.28352000
H          -2.35076400     -0.68858100     -1.04189400
H          -4.19968600     -1.88697900      2.41276200
H          -5.90365400     -1.48836200      2.75486700
H          -4.66530000     -0.20541600      2.79121600
