10
b3lypvdz=-155.891453100692 
C           2.65439500      0.55431400      0.10126700
C           5.09521000      1.00221300      0.07392400
C           6.36853400      0.57432500      0.03878000
C           3.92786100      0.12665100      0.06880800
H           1.81727600     -0.14741500      0.09611700
H           2.40959300      1.62069700      0.13623500
H           4.89372200      2.08061600      0.10981200
H           6.61296000     -0.49206900      0.00157900
H           7.20590800      1.27574700      0.04447100
H           4.12954200     -0.95178000      0.03470500
