18
b3lypvdz=-272.796154854741 
O          -3.25878300      0.77489900     -1.33390300
C          -5.36314000      1.43852800     -0.40807100
C          -4.10109200      0.61217900     -0.20339100
C          -5.10010100      2.94724800     -0.46336700
C          -1.96366500      0.25009500     -1.14381800
C          -6.36924400      3.78228800     -0.65056700
H          -6.06822300      1.20676300      0.41099800
H          -5.84987400      1.10825400     -1.34436000
H          -3.56789300      0.94752200      0.71264600
H          -4.35597600     -0.45949600     -0.06045200
H          -4.58781500      3.26024400      0.46614600
H          -4.39101200      3.15041700     -1.28301600
H          -1.45573200      0.72315500     -0.27904300
H          -1.97354600     -0.84771800     -0.98246000
H          -1.38583800      0.46864400     -2.05473000
H          -7.07359600      3.64620800      0.18863300
H          -6.13135300      4.85675100     -0.71644300
H          -6.90361600      3.49992000     -1.57430500
