17
b3lypvdz=-251.703577417946 
C           5.53299800     -1.67561600      0.59016100
C           6.63260700     -0.65619900      0.49938900
C           3.41049900     -3.64243900     -0.56815500
C           7.90009100     -0.91225800      0.16303300
N           3.22779500     -2.25916400     -0.14257400
C           4.37962500     -1.39327300     -0.38631200
H           5.94937100     -2.68086500      0.40936500
H           5.10310800     -1.68002900      1.60902400
H           6.34283100      0.37855300      0.72969500
H           3.75134400     -3.75814100     -1.62343500
H           4.15209600     -4.14955600      0.06930200
H           2.46177200     -4.19019800     -0.45108500
H           8.23309500     -1.92812000     -0.07594200
H           8.65263300     -0.12072200      0.11266300
H           2.42349900     -1.87168100     -0.63615700
H           4.04420400     -0.35090300     -0.24370900
H           4.77003000     -1.46708800     -1.42876400
