14
b3lypvdz=-303.705847001317 
O          -2.90852200     -2.14657200     -0.27538200
N          -4.12311500     -0.28010000      0.21859800
N          -0.65786800     -0.71147600     -0.91830300
C          -5.29411000     -0.97879000      0.71598100
C          -1.92982900     -0.00715800     -0.83009900
C          -3.02376100     -0.92558800     -0.26496500
H          -4.12782000      0.73277100      0.20198900
H          -0.26433800     -0.60920400     -1.85392400
H          -0.87676700     -1.70810300     -0.81143200
H          -6.16841600     -0.83468900      0.05753700
H          -5.55805200     -0.63514100      1.73034300
H          -5.04351600     -2.04776100      0.74825600
H          -1.85048200      0.89212400     -0.18843800
H          -2.31070400      0.35208600     -1.80886200
