13
b3lypvdz=-232.321541383956 
O          -3.49742400     -2.17251100     -1.12052500
C          -2.23199400     -0.11431700     -1.19617500
C          -3.12727800     -1.15930000     -0.57270300
C          -1.95203900     -0.29687200     -2.68879200
C          -3.15979800      0.01545900     -3.57742800
H          -2.66109700      0.88133000     -0.96875200
H          -1.29469800     -0.15248100     -0.60354700
H          -3.42630600     -0.93812000      0.48806200
H          -1.62619900     -1.33605100     -2.86332800
H          -1.10868900      0.35550100     -2.97180600
H          -4.00769200     -0.64671700     -3.34278400
H          -2.91128500     -0.12078800     -4.64314100
H          -3.49560100      1.05976700     -3.44458000
