10
b3lypvdz=-230.1485230324 
O          -2.73318900      1.09269100     -0.89255100
O          -3.53221800      1.60566100      1.25849600
C          -4.98419100      1.72842800     -0.60004700
C          -3.81190500      0.99018600      0.01515900
H          -2.01781300      0.51507100     -0.58862400
H          -2.89283100      1.05431000      1.73314700
H          -5.85345300      1.67986000      0.07137900
H          -4.70034600      2.78217900     -0.74846300
H          -5.24359500      1.28853600     -1.57347300
H          -4.06325700     -0.08092200      0.17927600
