16
b3lypvdz=-362.850522880974 
O          -2.62911400      1.51686700     -0.60766600
O          -7.66056200     -0.31638600      1.06225400
N          -6.18823500      1.25969300      0.29175200
C          -5.00723600      1.63569300     -0.50938000
C          -3.75451000      1.07088700      0.15040800
C          -4.94785700      3.15595700     -0.61677800
C          -6.70633800     -0.00247500      0.37260700
H          -1.85814300      1.03171400     -0.28173800
H          -6.69057200      1.96302200      0.82741000
H          -5.15069000      1.22750800     -1.52448400
H          -3.72824600      1.46377000      1.18873300
H          -3.79992100     -0.03668000      0.19050000
H          -5.90287800      3.55077400     -1.00521500
H          -4.76381300      3.61495400      0.37306200
H          -4.13350600      3.48103600     -1.27740900
H          -6.18758100     -0.73303600     -0.29735800
