18
b3lypvdz=-326.949215926139 
O          -3.35142800     -2.47021900     -0.52244000
N          -4.12970100     -0.38799800      0.07002100
C          -4.94224100      1.86681200     -0.68802800
C          -3.88352700      1.04879200      0.05683900
C          -5.26058200     -0.93737100      0.82336100
C          -3.25850900     -1.25467200     -0.53230200
C          -4.94980200     -1.16226400      2.30553400
H          -5.91907000      1.84391000     -0.17934900
H          -4.62468400      2.92129700     -0.74529500
H          -5.08126800      1.48967200     -1.71405200
H          -2.90120200      1.19907500     -0.42032700
H          -3.78476500      1.42121000      1.09338800
H          -6.11785200     -0.25614500      0.70186600
H          -5.51693300     -1.89400300      0.34659700
H          -2.43013000     -0.71049800     -1.04867400
H          -4.15066700     -1.91087700      2.42098600
H          -5.84531600     -1.53560000      2.82990500
H          -4.62862400     -0.23342200      2.80627000
