14
b3lypvdz=-398.767676651892 
O          -2.63297100      1.27056600     -0.86246200
O          -3.51287900      1.97685100      1.19698700
O          -7.82918000     -0.13519500      1.10173100
N          -6.06484900      1.11600900      0.34665400
C          -4.95456500      1.30734200     -0.55825500
C          -3.61120600      1.05840100      0.12266700
C          -6.98528100      0.11144300      0.26254500
H          -1.76036300      1.14778600     -0.46027700
H          -2.96124800      1.59189100      1.89255400
H          -6.05150400      1.64713000      1.21394200
H          -4.93526300      2.33976800     -0.94962600
H          -5.05976800      0.62770500     -1.41603700
H          -3.56675500      0.02317200      0.52097300
H          -6.88777000     -0.46226900     -0.69359800
