19
b3lypvdz=-347.998093501492 
O          -2.92929300      1.02440300     -0.90685200
O          -3.32119000      1.75941400      1.24950100
C          -5.17511100      1.60441200     -0.21959700
C          -3.83752300      0.99208600      0.18619300
C          -5.04474800      3.03933700     -0.73958800
C          -2.50363400     -0.23293200     -1.42011200
C          -1.59822600      0.04270500     -2.60744900
H          -2.39372000      1.49953000      1.35943400
H          -5.84468600      1.56645900      0.65748000
H          -5.62028700      0.95340100     -0.99251000
H          -3.97971600     -0.06554700      0.50006600
H          -6.02689000      3.44411000     -1.03268300
H          -4.61423200      3.69253600      0.03492800
H          -4.38041600      3.07784300     -1.61687700
H          -1.96450900     -0.80811300     -0.63823600
H          -3.37449800     -0.84225600     -1.73637800
H          -2.14651200      0.60229000     -3.38244500
H          -1.22914700     -0.89737300     -3.04850800
H          -0.73296100      0.65119500     -2.29876500
