15
b3lypvdz=-287.6683642111 
O           0.08891400      1.69396800     -0.62612100
N          -0.69223400     -0.45772300     -0.57017300
C          -1.94648300     -0.18813900     -1.26994100
C          -1.84375500     -0.34076600     -2.79451800
C          -1.55732100     -1.77496500     -3.24653700
C           0.21410600      0.52567100     -0.30396800
H          -0.48612500     -1.39511700     -0.24732800
H          -2.23927400      0.84161300     -1.01614700
H          -2.71287200     -0.87125800     -0.86632700
H          -2.79022400      0.01590300     -3.23945600
H          -1.05729000      0.34540000     -3.15336400
H          -2.35610300     -2.46548900     -2.92167800
H          -1.48078300     -1.85100200     -4.34365700
H          -0.60739800     -2.14402100     -2.82384600
H           1.09814000      0.13842500      0.26086100
