14
b3lypvdz=-340.810596056383 
O          -2.74515700      1.23350200     -0.85392100
O          -3.66414400      1.46383500      1.29131000
N          -4.01418200     -0.47551400      0.08886300
N          -6.23828700      1.41411700      0.14737800
C          -5.03069200      1.73007700     -0.61473800
C          -3.84222700      0.96338000     -0.02059700
H          -2.01533400      0.67713200     -0.53660200
H          -3.19192400      0.76691100      1.77552300
H          -4.94784100     -0.63362200      0.48315000
H          -4.03870600     -0.87487800     -0.85234700
H          -7.04911900      1.85430800     -0.28967300
H          -6.15076700      1.84159200      1.07254800
H          -4.75417900      2.80307000     -0.64015500
H          -5.16154100      1.39448700     -1.65573900
