12
b3lypvdz=-2730.529264663406 
Br          8.83305700     -2.54070000      0.24609100
C           5.57188500     -1.72459700      0.48553500
C           6.63972300     -0.67272600      0.41323000
C           7.95928800     -0.83630500      0.30855600
C           4.38610700     -1.42633300     -0.43686500
H           6.00877700     -2.70643500      0.24665600
H           5.21027400     -1.78844400      1.52980000
H           6.30355600      0.37307000      0.45251900
H           8.67418300     -0.01524800      0.25475300
H           3.60389600     -2.19469900     -0.32980600
H           3.92834100     -0.45113800     -0.19750900
H           4.70101200     -1.40184500     -1.49336000
