16
b3lypvdz=-362.847715150313 
O          -3.73047300      1.39436500      1.36395400
O          -7.50118900     -0.27886700      1.23019700
N          -6.25935900      1.20320500      0.02479100
C          -5.04766600      1.71880700     -0.61398400
C          -3.76374700      1.12323800     -0.02723000
C          -5.03441500      3.24606600     -0.50814500
C          -6.42762400      0.07548600      0.77416900
H          -2.93658900      0.98583900      1.73614800
H          -7.11569800      1.73310000     -0.11968400
H          -5.05760000      1.43354700     -1.68536600
H          -2.91430100      1.60090100     -0.55473600
H          -3.71067600      0.03790300     -0.24141500
H          -5.97821100      3.67727000     -0.88024600
H          -4.89410900      3.54897300      0.54009200
H          -4.21768100      3.67038900     -1.11232000
H          -5.48716400     -0.49172300      0.94147500
