14
b3lypvdz=-233.238915404246 
C           5.13441200      1.00122700     -0.11278600
C           6.73308500     -0.85755400      0.42642100
C           6.46866500      0.36064400     -0.06731700
C           5.06328000      2.47441600     -0.14907300
C           6.09116700      3.33638400     -0.08249900
C           3.99498800      0.27388300     -0.15682100
H           5.94584500     -1.45478400      0.89311800
H           7.73678400     -1.28738900      0.39226800
H           7.28005700      0.95532500     -0.49498600
H           4.04461200      2.86650400     -0.25301600
H           7.11996600      2.99263600      0.04220600
H           5.92042800      4.41304400     -0.14082000
H           4.00383000     -0.81615000     -0.20197300
H           3.02178000      0.77181500     -0.16442300
