18
b3lypvdz=-364.044240795389 
O          -3.08432600      0.94207900     -1.22635900
O          -3.45444200      1.10675600      1.09175200
N          -1.16822300      0.08734900     -0.13090800
C          -5.19224800      1.72303500     -0.41351500
C          -4.02047700      0.78823000     -0.14919600
C          -4.77702200      3.18974500     -0.55780100
C          -2.08737400     -0.04125100     -1.27376600
H          -2.58040100      0.66318800      1.09923000
H          -0.58412100      0.91832400     -0.26086400
H          -0.53333800     -0.71418900     -0.09822400
H          -5.89478200      1.60388700      0.42933300
H          -5.71162300      1.37487700     -1.32236600
H          -4.36238000     -0.27292400     -0.16495700
H          -5.65614200      3.83085600     -0.73081100
H          -4.26336600      3.53758800      0.35194200
H          -4.08413000      3.31715100     -1.40357000
H          -2.52780400     -1.05841400     -1.22725300
H          -1.59600100      0.08191400     -2.25696300
