13
b3lypvdz=-195.182559644201 
C           5.19524100      1.01717200     -0.22536200
C           5.07861700      2.46761000     -0.15143100
C           6.11910500      3.31769700     -0.13745000
C           4.23300300     -1.31970600     -0.31236700
C           4.14635500      0.17462200     -0.23805500
H           6.21262500      0.60647700     -0.27099300
H           4.05980900      2.87251900     -0.10396800
H           7.15170900      2.95627500     -0.18044600
H           5.96890200      4.39883600     -0.08033200
H           3.76076400     -1.79777200      0.56485200
H           5.27694700     -1.66607200     -0.37076800
H           3.69227800     -1.70071200     -1.19790600
H           3.13464500      0.59925500     -0.19047400
