12
b3lypvdz=-285.467465322597 
O          -2.71399900      1.24856800     -0.87458400
O          -3.63130300      1.46255100      1.27645900
N          -6.20325400      1.35547100      0.16006500
C          -5.01514900      1.65829400     -0.63209900
C          -3.80659800      0.95380700     -0.03731100
H          -1.95351700      0.72474400     -0.58402200
H          -3.10803100      0.82947700      1.78822100
H          -7.00513000      1.86050200     -0.22063800
H          -6.05662000      1.73389600      1.09931200
H          -4.74810200      2.73445600     -0.70428400
H          -5.15205900      1.28179700     -1.65846000
H          -3.99233900     -0.13916200      0.00934100
