13
b3lypvdz=-2768.599442069008 
Br          8.94069200     -2.53105100      0.73921200
C           5.72061000     -1.80927200      0.37753900
C           4.97873500      1.05452400     -0.08299400
C           6.72911000     -0.69721200      0.29826100
C           6.25996500      0.67442900      0.05709200
C           8.06016300     -0.86977100      0.42913800
H           5.14939900     -1.88358200     -0.56375800
H           6.20139600     -2.77668200      0.57025700
H           4.99036400     -1.61555800      1.18149100
H           4.14610700      0.34916400     -0.02740200
H           4.72545300      2.10100600     -0.26659700
H           7.04274600      1.43866300     -0.01360900
H           8.76586100     -0.04015900      0.36296900
