16
b3lypvdz=-304.887140147041 
O          -2.76352300      1.38967800     -0.72014200
N          -3.97471900     -0.46372300      0.00310500
N          -6.31391800      1.32039300      0.15034500
C          -5.11564200      1.71557900     -0.60589400
C          -3.90437800      0.99238500      0.01312800
C          -4.96092900      3.23360900     -0.55559500
H          -2.04539800      0.81232100     -0.41765200
H          -4.67092000     -0.78942400      0.67606300
H          -4.26951600     -0.79272500     -0.92138200
H          -7.09187100      1.92929000     -0.11210000
H          -6.60787500      0.38249400     -0.13009100
H          -5.14705100      1.40345600     -1.67449000
H          -3.83573300      1.29589600      1.07807100
H          -5.78909600      3.73123300     -1.08774200
H          -4.96785200      3.58565200      0.48966900
H          -4.01708000      3.54098600     -1.02659400
