10
b3lypvdz=-284.286075845019 
O          -3.60993900      1.51155700      1.38563600
O          -3.21964300     -2.41306200     -0.71289400
N          -4.00928400     -0.37032300     -0.02908700
C          -3.85696400      1.06105700      0.07268200
C          -3.12086600     -1.20459600     -0.65524200
H          -2.78226500      1.10553100      1.68776100
H          -4.80159400     -0.81761800      0.42658100
H          -3.05822100      1.35296200     -0.63562100
H          -4.78578600      1.56636900     -0.23292400
H          -2.27853700     -0.63087700     -1.11809200
