20
b3lypvdz=-290.983229142419 
C           5.56826000     -1.75068000      0.51958700
C           6.63071400     -0.68789000      0.50149600
C           3.38363100     -3.62414100     -0.53891500
C           7.90918200     -0.87546000      0.16317000
N           3.19649900     -2.24811200     -0.10303800
C           4.35718400     -1.39778600     -0.35898200
C           1.97288100     -1.68732900     -0.65439100
H           6.01080800     -2.71246700      0.21268400
H           5.19015800     -1.88214800      1.55082900
H           6.30307700      0.31546100      0.80593500
H           3.52763500     -3.72160100     -1.64094400
H           4.25458900     -4.07540000     -0.04239000
H           2.50097600     -4.22296600     -0.26262800
H           8.28057300     -1.85904000     -0.14273000
H           8.63394300     -0.05744500      0.18208600
H           4.05690000     -0.35913500     -0.13622300
H           4.66055400     -1.41201600     -1.43280700
H           1.81286100     -0.67142200     -0.25960500
H           1.11366000     -2.30794000     -0.35314900
H           1.96641600     -1.62528400     -1.76808400
