20
b3lypvdz=-328.128137219165 
O          -2.86741100      1.12361600     -1.16552600
N          -1.36109600     -0.48367400     -0.35416400
C          -5.05446200      1.59253400     -0.21754900
C          -3.58026200      1.33167200      0.06076000
C          -2.36776200     -0.18454100     -1.36958100
C          -1.86001100     -0.22617600     -2.81558600
C          -2.94663400     -0.01885000     -3.87175000
H          -0.51508400      0.05604200     -0.56227100
H          -1.09030500     -1.46867100     -0.41141800
H          -5.58825400      1.85156200      0.71307200
H          -5.17304700      2.42944900     -0.92435900
H          -5.54177800      0.70645400     -0.65781600
H          -3.12324900      2.20605800      0.55718300
H          -3.43304400      0.47190100      0.73463300
H          -3.17873100     -0.93544700     -1.24377500
H          -1.35276900     -1.19418100     -2.97411800
H          -1.08632100      0.55788300     -2.91525200
H          -3.71682900     -0.80825900     -3.81921700
H          -2.51746700     -0.03462700     -4.88707700
H          -3.45258400      0.94755600     -3.72329000
