16
b3lypvdz=-288.58813137976 
C           5.56023000     -1.78675200      0.35269000
C           5.01498400      0.99548900      0.06187100
C           6.68140300     -0.77952700      0.24621000
C           6.40846000      0.53250300      0.11849800
N           3.16626800     -2.17601400     -0.04262800
C           4.31299700     -1.34138600     -0.42266900
C           4.01698000      0.11931700     -0.14624500
H           5.88764900     -2.77713200     -0.00487700
H           5.27702300     -1.91389300      1.41855000
H           4.80437500      2.06048200      0.19637400
H           7.71264100     -1.13032500      0.34476500
H           7.21453800      1.27071000      0.09042400
H           2.35495100     -1.90659600     -0.60600500
H           3.35603300     -3.14508400     -0.31264200
H           4.56211600     -1.41215700     -1.51142000
H           2.97355000      0.44966300     -0.18459800
