19
b3lypvdz=-347.992885813456 
O          -3.01403600      1.14315900     -1.08169000
O          -2.84869400      1.31366700      1.27330700
C          -3.68824500      1.27878800      0.14600800
C          -2.42591000     -0.13104600     -1.30536300
C          -2.00996400     -0.24144100     -2.77219200
C          -3.22396600     -0.17628200     -3.70722900
C          -1.19168900     -1.52043000     -2.98530100
H          -2.57511300      0.40803200      1.47768500
H          -4.44962300      0.47288300      0.24518000
H          -4.18832400      2.25648800      0.10198500
H          -1.54013200     -0.26866500     -0.65332500
H          -3.15799500     -0.93302000     -1.05879700
H          -1.36488500      0.63118500     -2.98499500
H          -3.87106800     -1.06285000     -3.57700200
H          -2.90458400     -0.14620600     -4.76250400
H          -3.83163700      0.71817400     -3.50195500
H          -1.78250300     -2.41532500     -2.71773100
H          -0.88697800     -1.62606100     -4.03895500
H          -0.27645500     -1.52574800     -2.37102600
