17
b3lypvdz=-288.839169935162 
O          -3.04030500      0.95194800     -1.14662100
N          -1.13240600     -0.21245700     -0.40619100
C          -3.66215600      1.04709900      0.12429300
C          -2.27001100     -0.22080600     -1.32215500
C          -1.90739300     -0.27509400     -2.81232300
C          -1.24141000     -1.59141800     -3.22185500
H          -0.39146200      0.38706400     -0.77977800
H          -0.73559500     -1.14759600     -0.30963700
H          -2.92228200      0.98073900      0.93982400
H          -4.41614200      0.24573900      0.26629900
H          -4.17390300      2.02051100      0.15676500
H          -2.88125100     -1.11216500     -1.05715500
H          -2.82422400     -0.10761200     -3.40247000
H          -1.23848900      0.57830600     -3.03104700
H          -1.93126100     -2.44430500     -3.09751200
H          -0.92267900     -1.56999400     -4.27641000
H          -0.34353100     -1.79676100     -2.61482700
