16
b3lypvdz=-271.605765768775 
O          -7.19917700      0.55316000      1.31792300
C          -5.25778000     -0.83468100      0.95680300
C          -6.33082800      0.15574400      0.57388500
C          -5.25592800     -1.23155700      2.43260400
C          -4.23449400     -2.32708300      2.77465300
C          -4.66324100     -3.73587300      2.35014900
H          -4.28461000     -0.40366400      0.64818600
H          -5.39197200     -1.71111500      0.29097400
H          -6.27851300      0.51335800     -0.48872600
H          -6.27134700     -1.55491000      2.72021900
H          -5.05339200     -0.32948800      3.03450900
H          -3.26182800     -2.07738500      2.31071500
H          -4.05633500     -2.32317500      3.86375700
H          -4.86214700     -3.80245400      1.26604100
H          -5.58579000     -4.04068800      2.87269600
H          -3.88561700     -4.48068800      2.58701200
