15
b3lypvdz=-287.668030277677 
O           0.37224400      1.38084400     -1.01469400
N          -0.85056400     -0.49090000     -0.51730400
C          -2.05506600     -0.12564000     -1.25331300
C          -1.92418200     -0.28007300     -2.77573500
C          -3.24517100     -0.01564100     -3.49698600
C           0.26410300      0.29121100     -0.47952500
H          -0.79923800     -1.40507500     -0.08411700
H          -2.31348000      0.91719700     -1.00619200
H          -2.87282900     -0.76003300     -0.87368800
H          -1.56334500     -1.29911400     -3.00293200
H          -1.14620500      0.42015100     -3.12096400
H          -4.03429900     -0.71187800     -3.16576100
H          -3.13750800     -0.13253200     -4.58739300
H          -3.60981000      1.00852300     -3.30649900
H           1.08464900     -0.18814000      0.10990300
