16
b3lypvdz=-234.460786161471 
C           2.70491600      0.52469800      0.10237700
C           5.11545500      1.18977900     -0.15050000
C           5.07698600      2.52605900     -0.03023200
C           1.53141500     -0.41031100     -0.01148900
C           1.82759900     -1.82401300     -0.51152000
C           3.97418300      0.26822800     -0.26164900
H           2.47355900      1.50238800      0.54372200
H           6.09963700      0.70677000     -0.18780700
H           5.99566500      3.10906900      0.06627600
H           4.13522100      3.08266400     -0.02733700
H           0.76763700      0.06639400     -0.65818200
H           1.04366400     -0.46782700      0.98146200
H           2.56107600     -2.33184700      0.13614600
H           0.90920100     -2.43205900     -0.51744600
H           2.23610300     -1.82089000     -1.53595800
H           4.21548300     -0.71860000     -0.66946300
