12
b3lypvdz=-211.225028770474 
C           5.02784100      0.95139500     -0.04671300
C           6.33377500      0.34740700      0.14204700
C           7.48140400      1.06666700      0.15641500
N           8.77584400      0.56607200      0.22861200
C           3.85132000      0.29691800     -0.08781800
H           5.02185700      2.04323000     -0.16949200
H           6.37466600     -0.74233600      0.27140000
H           7.43824100      2.15506500      0.02845200
H           8.85315300     -0.38391800      0.58379200
H           9.45109600      1.18315200      0.66979900
H           3.79356000     -0.79138700      0.02026300
H           2.91134200      0.83293500     -0.23475700
