15
b3lypvdz=-324.760331073436 
O          -2.64395300      1.09937900     -0.82430300
O          -3.51396800      1.46298900      1.32479500
N          -3.95090600     -0.52856700      0.17615800
C          -3.71748600      0.89640500      0.05522600
C          -5.24426700     -0.92686400      0.76191100
C          -5.23394500     -0.96228600      2.28839300
H          -1.91743100      0.53625200     -0.50602300
H          -2.93219100      0.84887400      1.80459400
H          -3.87217600     -0.92020500     -0.76248200
H          -4.55989100      1.46671500     -0.38055600
H          -6.06530300     -0.26684400      0.41041600
H          -5.47178400     -1.93518900      0.37945300
H          -4.42022400     -1.60940200      2.65485700
H          -6.18743400     -1.36228200      2.67154200
H          -5.08814100      0.04472500      2.70472000
