19
b3lypvdz=-307.035186100172 
C           5.42398300     -1.49863500      0.70764500
C           6.52019700     -0.47556300      0.61956100
C           7.75627400     -0.73723300      0.16171200
N           3.17905700     -2.20198900     -0.02851000
N           8.78320100      0.18911400     -0.05550700
C           4.21689700     -1.18872700     -0.18745100
C           2.03007400     -1.99024000     -0.89445500
H           5.83031900     -2.48933800      0.42861100
H           5.04974100     -1.59746300      1.74360200
H           6.27597100      0.54828500      0.93526700
H           8.01725400     -1.75593200     -0.15160800
H           3.58566300     -3.11765600     -0.23162200
H           8.63850700      1.07175500      0.43316200
H           9.70538400     -0.17729000      0.17616500
H           3.78638700     -0.21191700      0.10384900
H           4.56118400     -1.06882100     -1.24137000
H           1.53418700     -1.04141200     -0.62438500
H           1.29435400     -2.79775200     -0.74815200
H           2.27386500     -1.93508700     -1.98081500
