17
b3lypvdz=-251.700956825542 
C           5.64628500     -1.85690600      0.39237800
C           4.94148700      1.11329100     -0.03743700
C           3.28314900     -3.55700600     -0.51434000
N           3.23431500     -2.17063100     -0.06438400
C           4.42127200     -1.36415800     -0.38801700
C           4.08752300      0.08819500     -0.08683700
H           6.51691700     -1.21563900      0.18790800
H           5.92127000     -2.88223800      0.09844600
H           5.44018200     -1.84040700      1.47493600
H           6.01593500      0.99253100     -0.20855000
H           4.58737600      2.12426600      0.18009800
H           3.56279100     -3.68717100     -1.58561900
H           4.00231700     -4.13681500      0.08476100
H           2.29482500     -4.01925300     -0.36027000
H           2.43080400     -1.72491500     -0.51126500
H           4.67770900     -1.43934400     -1.47466600
H           3.02504400      0.28850000      0.10525800
