12
b3lypvdz=-157.109305906434 
C           5.55809500     -1.73698100      0.49908300
C           4.39187900     -1.39355500     -0.43710400
C           6.63969900     -0.69099600      0.49679900
C           7.92361300     -0.90666000      0.19718700
H           5.99150000     -2.71460400      0.22562100
H           5.16360700     -1.84433300      1.52800400
H           3.59241400     -2.14989300     -0.37147700
H           3.94613100     -0.41850100     -0.17451300
H           4.72813500     -1.33655800     -1.48595600
H           6.31865300      0.32538000      0.76445400
H           8.28708800     -1.90363000     -0.07449200
H           8.66038500     -0.09886900      0.21159300
