103
bv5lypvdz=-2548.42416065 
     N     16.42543800     -1.39112900     -0.88418200
     C     16.63525700     -0.89497600      0.48367300
     C     15.44400400     -0.02540300      0.94083400
     O     15.52649400      0.72143700      1.91497300
     H     16.65479100     -0.64954400     -1.55258200
     H     16.60298500     -1.78044100      1.14633800
     C     17.95841300     -0.15966300      0.72451700
     H     18.00865200      0.21180000      1.75806600
     H     18.04656700      0.71149800      0.05157200
     H     18.81446700     -0.82840200      0.53645500
     H     17.08181800     -2.14895800     -1.08082600
     N     14.31594100     -0.17673100      0.20586400
     C     13.06825000      0.46866300      0.55823800
     C     11.93558900     -0.32975000     -0.10621500
     O     12.14787400     -1.12137600     -1.02370200
     H     14.30248500     -0.86342200     -0.54796600
     H     12.95080000      0.43124800      1.65550500
     C     13.03565500      1.94654300      0.12243300
     H     13.86321200      2.48163600      0.61034200
     H     13.14963300      2.02587000     -0.97088800
     H     12.08775500      2.42824600      0.41198000
     N     10.69471000     -0.07996100      0.38064500
     C      9.49026100     -0.61585700     -0.22675800
     C      8.33621100      0.30700900      0.20515100
     O      8.48516800      1.15410100      1.08735700
     H     10.52439700      0.63534100      1.08585200
     H      9.59811800     -0.57429100     -1.32468000
     C      9.23298800     -2.07808000      0.18124600
     H     10.08884600     -2.69343300     -0.13138500
     H      9.11448800     -2.15786300      1.27388500
     H      8.32414100     -2.47442200     -0.29941100
     N      7.16325700      0.11058700     -0.43914800
     C      5.93251200      0.78123100     -0.05705200
     C      4.78192600     -0.10822100     -0.56373700
     O      4.98613500     -1.02984800     -1.35620300
     H      7.03196200     -0.64973700     -1.10513000
     H      5.89112900      0.84085400      1.04412000
     C      5.84492400      2.20817700     -0.62733400
     H      6.69360700      2.79901100     -0.25339100
     H      5.88091600      2.18631300     -1.72837200
     H      4.91165200      2.70470800     -0.31725000
     N      3.55619800      0.20426500     -0.08919200
     C      2.33778300     -0.44662600     -0.53916400
     C      1.18338700      0.50037000     -0.15992600
     O      1.36546500      1.46439900      0.58594400
     H      3.39630500      1.00726000      0.51842900
     H      2.37594100     -0.55424900     -1.63705500
     C      2.15726800     -1.84193200      0.08521600
     H      3.01408700     -2.47375600     -0.18917400
     H      2.10264800     -1.76766700      1.18318700
     H      1.23696400     -2.32525600     -0.27915900
     N     -0.02104300      0.18741000     -0.68598300
     C     -1.24874300      0.87071900     -0.31489900
     C     -2.39418500     -0.11125100     -0.62596500
     O     -2.20242600     -1.12182700     -1.30517700
     H     -0.16953100     -0.65725200     -1.23749800
     H     -1.22524300      1.07392600      0.76948500
     C     -1.42230500      2.20552100     -1.06072900
     H     -0.57480300      2.86490200     -0.82394600
     H     -1.45312800      2.03776500     -2.14924300
     H     -2.35262500      2.71199700     -0.75822700
     N     -3.59947300      0.22354700     -0.11700600
     C     -4.81708600     -0.51735100     -0.39979700
     C     -5.98157500      0.43353400     -0.06424400
     O     -5.79107700      1.49033700      0.54009600
     H     -3.75290100      1.09256700      0.39387800
     H     -4.84394600     -0.76131200     -1.47597400
     C     -4.90255100     -1.82753600      0.40347000
     H     -4.04064800     -2.46177400      0.15169600
     H     -4.89036300     -1.61728200      1.48498300
     H     -5.82409000     -2.38217700      0.16534000
     N     -7.20396600      0.01813500     -0.46324600
     C     -8.43056900      0.70520600     -0.09543700
     C     -9.55413600     -0.34312000     -0.19632800
     O     -9.36920000     -1.42912600     -0.74812400
     H     -7.35326700     -0.89574800     -0.88968000
     H     -8.34262400      1.04800000      0.94981600
     C     -8.70751700      1.92620500     -0.99046500
     H     -7.87420000      2.63790000     -0.90000800
     H     -8.80309800      1.61847600     -2.04406300
     H     -9.63546200      2.43805100     -0.68961200
     N    -10.73845800      0.01949900      0.34505000
     C    -11.93990900     -0.78921300      0.22846000
     C    -13.12386300      0.16570300      0.46217900
     O    -12.95693200      1.30009500      0.90869300
     H    -10.89364000      0.94598100      0.74022000
     H    -11.99449400     -1.19477900     -0.79660900
     C    -11.95024800     -1.96507800      1.22227700
     H    -11.07638000     -2.60414200      1.03140300
     H    -11.90524100     -1.59478500      2.25888700
     H    -12.85897100     -2.57739500      1.10827800
     N    -14.34603100     -0.33261500      0.15507200
     C    -15.57410700      0.38923700      0.44931600
     C    -16.68876500     -0.64424400      0.53266500
     O    -16.55979300     -1.81991900      0.26687200
     H    -14.46285200     -1.30130000     -0.13133200
     H    -15.47740600      0.86940200      1.43825400
     C    -15.89048000      1.48251300     -0.58704000
     H    -15.06559400      2.20857300     -0.59803800
     H    -15.99707300      1.04625900     -1.59311000
     H    -16.82220200      2.00360300     -0.32260300
     O    -17.85212700     -0.09488000      0.92458900
     H    -18.51157800     -0.81399200      0.93406300
