17
b3lypvdz=-272.518432777588 
C          -0.06347600    -24.84389300     -1.83981300
C          -1.27650400    -24.67560100     -2.39477800
C          -1.94856500    -23.36301100     -2.54093800
C          -1.48021900    -22.15839300     -2.18326500
C          -2.06069500    -25.86740600     -2.92740800
C          -2.24261200    -25.83311900     -4.42514300
C          -3.41787400    -25.85295300     -5.06068400
H           0.51998500    -24.00660400     -1.45029800
H           0.38257200    -25.83765600     -1.75480900
H          -2.94241900    -23.40999500     -2.99940600
H          -0.49461600    -22.01990800     -1.73062900
H          -2.07928400    -21.25802500     -2.33738900
H          -3.05334100    -25.90408700     -2.44413200
H          -1.52767200    -26.79175800     -2.64503800
H          -1.31555400    -25.78645200     -5.01078300
H          -3.48003600    -25.83337000     -6.15213800
H          -4.36449000    -25.89726900     -4.51144900
