13
b3lypvdz=-195.162808202623 
C          -1.46691400    -24.65018000     -2.32573800
C          -1.59283500    -23.38234800     -2.72815900
C          -1.99689500    -25.89122800     -3.01189700
C          -2.20917100    -25.88032900     -4.51071900
C          -1.49672900    -25.21319800     -5.42337500
H          -0.97711500    -24.84475900     -1.36384400
H          -1.21173000    -22.55936700     -2.11796600
H          -2.07632100    -23.11520100     -3.67053500
H          -2.95376300    -26.16395600     -2.52579500
H          -1.32765600    -26.73835600     -2.76356400
H          -3.00989900    -26.54313900     -4.86155000
H          -1.70898700    -25.32070000     -6.49066100
H          -0.67868600    -24.54283800     -5.14749800
