15
b3lypvdz=-308.422666755118 
C          -0.44720800    -19.24668600      2.85254600
C          -0.71508600    -20.55113800      2.67479800
C          -0.41366800    -21.35192600      1.48537500
C           0.65037200    -21.13191500      0.68912800
O           0.97794200    -21.80933200     -0.45189500
C          -0.00614700    -22.51124400     -1.10699900
C           0.27479400    -23.60987500     -1.80853100
H          -0.67493900    -18.74918000      3.79816700
H          -0.00369100    -18.63517000      2.06106100
H          -1.21625600    -21.09452100      3.48564000
H          -1.06867300    -22.20322800      1.27686700
H           1.41110900    -20.38076500      0.91304200
H          -1.00556500    -22.06708000     -1.04404100
H          -0.51178300    -24.10097600     -2.38204900
H           1.28529900    -24.02266400     -1.83200800
