17
b3lypvdz=-272.517843421391 
C           0.54476600    -23.91730000     -1.12342100
C          -0.11482100    -24.60208800     -2.06865800
C          -1.49460800    -24.33213200     -2.53433400
C          -2.02220300    -23.09623500     -2.57273600
C          -2.28612100    -25.54432600     -2.98774100
C          -1.91118500    -26.09840600     -4.34730800
C          -1.15197100    -25.50216400     -5.27069600
H           0.08260200    -23.07798400     -0.59488700
H           1.56630100    -24.18365300     -0.84118100
H           0.37522600    -25.46722500     -2.53163500
H          -1.43767400    -22.21618100     -2.29370300
H          -3.05292200    -22.93033100     -2.89709400
H          -3.36501500    -25.30325900     -2.99482300
H          -2.17133400    -26.35635200     -2.24416000
H          -2.33621800    -27.08588500     -4.56938700
H          -0.95261800    -25.98423700     -6.23144500
H          -0.71070700    -24.51504100     -5.10649100
