15
b3lypvdz=-196.394099772986 
C          -2.07553200    -25.99542800     -3.02020500
C          -3.32132100    -26.15739000     -2.14480800
C          -1.08834500    -27.16353700     -2.81974700
C          -2.37025800    -25.81413500     -4.49275400
C          -3.55986900    -25.89171600     -5.09684000
H          -1.54657500    -25.07674800     -2.69023500
H          -3.03920700    -26.21441900     -1.08028200
H          -3.86912400    -27.08448100     -2.39126800
H          -4.01700800    -25.31117700     -2.26714600
H          -0.78556000    -27.24758700     -1.76263700
H          -0.17448000    -27.03254600     -3.42258400
H          -1.55408400    -28.11807300     -3.12118600
H          -1.48465200    -25.61453500     -5.11231100
H          -3.65194900    -25.75570600     -6.17829500
H          -4.48553600    -26.08382200     -4.54720200
