17
b3lypvdz=-272.517826990004 
C          -0.94941700     -9.25853200      2.91736400
C          -2.22768600     -8.87064700      3.06870400
C          -2.96149400     -8.11091500      2.03142900
C          -2.43141600     -7.20211200      1.19986300
C          -3.01227600     -9.20671300      4.32305600
C          -4.01936100    -10.32927600      4.18524900
C          -4.12934300    -11.18336100      3.16349500
H          -0.39543700     -9.06264700      1.99605300
H          -0.42354400     -9.79372200      3.71282500
H          -4.04041100     -8.30297400      1.98145900
H          -1.37189800     -6.93255300      1.24143700
H          -3.04777500     -6.68874200      0.45749700
H          -2.31243100     -9.46442900      5.13860400
H          -3.54965000     -8.30470300      4.67310500
H          -4.70352300    -10.43276800      5.03789200
H          -4.88566200    -11.97272900      3.17067000
H          -3.47047500    -11.12957700      2.29219900
