15
b3lypvdz=-308.417930403283 
C           0.50332100     -6.44830900     -0.24770900
C           0.41775000     -5.33295600      0.48263300
O          -0.06028600     -7.67894000     -0.01956300
C          -0.97822800     -7.88142800      1.01218500
C          -0.50433200     -8.92326500      1.94269100
C          -1.17315700     -9.44108200      2.98233300
C          -2.15146800     -7.23369600      1.04471900
H           1.09874300     -6.50495000     -1.16265800
H           0.96675700     -4.45115000      0.15010100
H          -0.17630100     -5.26285800      1.39415400
H           0.50215400     -9.28643700      1.71502900
H          -2.18443000     -9.12293600      3.25012100
H          -0.71777800    -10.21347300      3.60597800
H          -2.87773400     -7.44250600      1.83083600
H          -2.40431200     -6.48601600      0.29295100
