17
b3lypvdz=-272.51998115261 
C           0.00354500    -22.23668200     -1.06362300
C           0.44608800    -23.49770600     -1.19701100
C          -0.30281300    -24.64617400     -1.72627600
C          -1.35345200    -24.60273300     -2.56442500
C          -2.10889100    -25.80832700     -3.04492400
C          -2.08842600    -26.04508600     -4.53966400
C          -1.37763400    -25.36690500     -5.44466200
H           0.65674000    -21.45169400     -0.67482200
H          -1.01831200    -21.94691300     -1.32605000
H           1.46719800    -23.72286400     -0.86614800
H           0.06201100    -25.63059300     -1.40636900
H          -1.69989800    -23.63340400     -2.94349300
H          -3.17142900    -25.70486200     -2.74091900
H          -1.74992400    -26.72005200     -2.53306800
H          -2.73200600    -26.86749800     -4.87895000
H          -1.43454900    -25.61732600     -6.50739000
H          -0.71194900    -24.54688100     -5.15900600
