15
b3lypvdz=-308.423578773514 
C          -0.91603500    -21.23184400      1.30314100
C           0.18769000    -20.84788200      0.63687700
C           0.93879600    -19.59921700      0.85587900
C           0.99050800    -18.91006600      2.00325700
O           0.77966700    -21.58586600     -0.37011100
C           0.02582100    -22.52167200     -1.03400200
C           0.57436600    -23.62107100     -1.55180100
H          -1.36036000    -20.56464500      2.04138000
H          -1.38452100    -22.20236500      1.14129700
H           1.50347500    -19.25377600     -0.01647400
H           0.48333800    -19.25345900      2.90887000
H           1.55079800    -17.97487900      2.06883300
H          -1.03352700    -22.26182500     -1.14370200
H          -0.03662100    -24.30231800     -2.14485900
H           1.63230600    -23.84771400     -1.40538300
