13
b3lypvdz=-704.329717615389 
S          -5.05931400      7.37524400      8.78061500
O          -4.01603100      7.00058300      9.76571500
O          -6.35041700      6.64919500      8.67200900
C          -4.29751500      7.46018400      7.16432900
C          -3.22575000      7.21271500      4.29131600
C          -4.42887900      6.81507900      4.73492400
C          -4.92370300      6.90711700      6.11369400
H          -5.36175400      8.71704100      8.99327100
H          -3.30693500      7.92090900      7.16379000
H          -2.47280100      7.65131300      4.95242900
H          -2.95177500      7.10210500      3.23990500
H          -5.13078800      6.37152000      4.02170000
H          -5.91203800      6.47719600      6.30960300
