16
b3lypvdz=-234.452164438569 
C          -1.56504600    -24.48680000     -2.41520900
C          -1.59143900    -23.31442100     -3.05611600
C          -2.12986900    -25.80393500     -2.91795100
C          -3.32332000    -26.23319600     -2.04525300
C          -2.40662200    -25.79552400     -4.40355800
C          -3.57517300    -26.03644700     -5.00527900
H          -1.12234600    -24.53616000     -1.41246800
H          -1.17487700    -22.41033600     -2.60471400
H          -2.03414500    -23.21364800     -4.05038000
H          -1.32924000    -26.55660100     -2.75723200
H          -3.03657500    -26.25083800     -0.98152700
H          -3.67355400    -27.24071200     -2.31973200
H          -4.16358600    -25.52796700     -2.15140000
H          -1.52795700    -25.57123100     -5.02122200
H          -3.66500200    -26.02009100     -6.09483500
H          -4.48634900    -26.26229400     -4.44612500
