16
b3lypvdz=-234.452939340496 
C          -1.59297400    -24.70661700     -2.33384500
C          -1.66173500    -23.46203700     -2.81446000
C          -2.07182100    -25.97473300     -3.01646700
C          -1.00382500    -27.08270100     -2.88751800
C          -2.44623500    -25.76827100     -4.46345800
C          -3.67049800    -25.92262400     -4.97524600
H          -1.15473100    -24.86803700     -1.34004200
H          -1.28845400    -22.61348600     -2.23541700
H          -2.09848500    -23.24433100     -3.79276200
H          -2.97299400    -26.31719500     -2.47090000
H          -0.73642800    -27.25302200     -1.83157000
H          -0.08164800    -26.80548500     -3.42583700
H          -1.37046700    -28.03336900     -3.30522900
H          -1.61915900    -25.48218300     -5.12703400
H          -3.87115900    -25.77142900     -6.03939600
H          -4.52118700    -26.20668000     -4.34711900
