11
b3lypvdz=-231.071324419604 
O          -4.19222000    -14.79267000      4.01925300
C          -3.30880100    -15.75497500      4.42559200
C          -3.67505500    -17.02831400      4.57942100
C          -3.73401800    -13.51069200      3.88859200
C          -4.52754400    -12.51576500      3.48840000
H          -2.28733100    -15.40169400      4.61265300
H          -2.93664400    -17.76080400      4.90455700
H          -4.69928100    -17.35131500      4.38510500
H          -2.67569200    -13.36431400      4.13760400
H          -4.11895000    -11.50962000      3.39703000
H          -5.57746500    -12.69043700      3.24579500
