15
b3lypvdz=-196.395049608416 
C          -1.58852900    -24.61477900     -2.28843600
C          -1.52301200    -23.43244900     -2.90630200
C          -2.18818200    -25.87678600     -2.86133200
C          -3.38737000    -26.34010300     -2.01230000
C          -1.12857100    -26.98864900     -2.96178100
H          -1.18144200    -24.71255300     -1.27178900
H          -1.07511300    -22.55630400     -2.42917800
H          -1.91803200    -23.29532400     -3.91894700
H          -2.55386900    -25.64963000     -3.87952300
H          -3.07684700    -26.55984800     -0.97560700
H          -3.83037400    -27.26081400     -2.42836900
H          -4.17083400    -25.56579000     -1.97224200
H          -0.72889100    -27.24453400     -1.96438500
H          -0.28039600    -26.68023400     -3.59408800
H          -1.56023600    -27.90870100     -3.39072200
