13
b3lypvdz=-704.333293932899 
C          -4.59815900     10.01007400      9.79596200
C          -5.27782800      9.25647100      8.93458400
S          -4.84973300      7.51700600      8.73139700
O          -3.72513800      7.21021100      9.65881000
O          -6.12502600      6.75358100      8.75368500
C          -4.21729000      7.43237500      7.04569300
C          -2.93937400      7.12709800      6.83251400
H          -4.88055200     11.05063500      9.97841200
H          -3.75027100      9.59122100     10.34511700
H          -6.15293000      9.57347400      8.36115900
H          -4.97682600      7.57911700      6.27335100
H          -2.54952100      7.01231100      5.81717800
H          -2.26105100      6.97222400      7.67614000
