11
b3lypvdz=-231.083110478145 
O           0.51748700    -21.08349300     -0.84522200
C          -0.06990400    -22.20696800     -1.33056000
C           0.37675800    -23.46944800     -1.18183300
C          -0.25326100    -24.68558200     -1.70812000
C          -1.34315600    -24.79828200     -2.48801000
H           1.32813700    -21.33771300     -0.37433700
H          -0.98457900    -21.95164000     -1.87298800
H           1.30075300    -23.61719900     -0.60797100
H           0.25217200    -25.61223200     -1.41250700
H          -1.90943300    -23.93170500     -2.84277500
H          -1.70327400    -25.78024000     -2.80187700
