15
b3lypvdz=-308.421131088782 
O          -2.45284700      0.40585100     -3.57210000
C          -1.25072700     -0.17344000     -3.19641800
C          -0.48982300     -0.71636700     -4.15944800
C           0.24548100     -0.18744100     -1.19363000
C          -0.97332200     -0.23724600     -1.74890800
C          -4.08480500      2.04465800     -3.09481100
C          -2.85439300      1.55408800     -2.93445800
H           0.39557700     -1.29827700     -3.90609600
H          -0.77310000     -0.61318000     -5.20806600
H           1.14461700     -0.04090600     -1.79815600
H           0.37765500     -0.29435800     -0.11416800
H          -1.85564800     -0.33748100     -1.10538900
H          -4.36030000      2.97994200     -2.60798200
H          -4.82157300      1.53422000     -3.71853500
H          -2.08999100      2.04353900     -2.32143500
