16
b3lypvdz=-234.453148573523 
C          -4.41726500      5.72322300     -0.24641200
C          -3.93217100      6.93616900      0.03420000
C          -5.03760600      5.26388800     -1.55340900
C          -5.11661100      6.36328100     -2.62527800
C          -4.29987100      4.04626600     -2.07156400
C          -4.82954000      2.83219800     -2.23958000
H          -4.36585800      4.94375700      0.52580000
H          -3.50543500      7.15543100      1.01707700
H          -3.94246600      7.75677500     -0.68932200
H          -6.06970700      4.93276800     -1.31894400
H          -5.68629500      7.23517300     -2.26472900
H          -5.61159300      5.97658100     -3.52979800
H          -4.11029400      6.71220200     -2.91419500
H          -3.24189500      4.21261600     -2.32056200
H          -4.23811500      1.99805700     -2.62843500
H          -5.87707700      2.62471400     -1.99144800
