13
b3lypvdz=-195.168617414932 
C          -2.54921100     -8.64352900      3.15339200
C          -2.91602200     -7.80669700      2.17916800
C          -3.42091100     -9.07397400      4.30904000
C          -3.63050000    -10.56904600      4.36349300
C          -3.31580100    -11.35590000      5.39611800
H          -1.54142700     -9.07946200      3.13485500
H          -2.23045400     -7.53652600      1.37085100
H          -3.91442200     -7.35552300      2.15715500
H          -2.96619800     -8.74385000      5.26222900
H          -4.39901200     -8.56372200      4.22642000
H          -4.07102700    -11.01667100      3.46234600
H          -3.50361100    -12.43318600      5.37041600
H          -2.86640300    -10.95021400      6.30961700
