17
b3lypvdz=-272.519847183115 
C          -0.92125300     -8.34360300      0.56258100
C          -0.38508400     -8.44983300      1.78897000
C          -1.06188800     -8.93460900      3.00125100
C          -2.37806100     -8.85043400      3.26348300
C          -3.03599800     -9.35592800      4.51626600
C          -4.06922500    -10.44404300      4.31542300
C          -4.28936100    -11.12631000      3.18777500
H          -0.33928700     -7.94979500     -0.27409800
H          -1.94821700     -8.65542000      0.35143900
H           0.66760500     -8.17001000      1.91985500
H          -0.40977800     -9.37863600      3.76478000
H          -3.03946700     -8.36455000      2.53512900
H          -2.26756100     -9.71795700      5.22533900
H          -3.53369100     -8.51014700      5.03208900
H          -4.67373000    -10.67539500      5.20190700
H          -5.05684700    -11.90346200      3.14079900
H          -3.71035700    -10.94016900      2.27901300
