19
b3lypvdz=-273.736547121818 
C          -0.02825800    -24.75978500     -1.75656600
C          -1.18842100    -24.78438100     -2.41832400
C          -1.92057900    -25.99637000     -2.96357200
C          -3.32979800    -26.03127900     -2.31609200
C          -1.19415300    -27.32255300     -2.65468500
C          -2.09913000    -25.89292000     -4.47449600
C          -1.46823300    -25.06238200     -5.30910100
H           0.39116300    -23.81774800     -1.39380000
H           0.54804500    -25.66405500     -1.54605300
H          -1.71177700    -23.83569900     -2.59515200
H          -3.25154600    -26.14565500     -1.22293700
H          -3.91731400    -26.87713500     -2.71104500
H          -3.88797600    -25.10435500     -2.52714500
H          -1.10944400    -27.48278100     -1.56748100
H          -0.18484100    -27.33354600     -3.09299600
H          -1.75171800    -28.17314600     -3.07907000
H          -2.82234600    -26.61127200     -4.88424300
H          -1.66505700    -25.08617400     -6.38435700
H          -0.73181700    -24.33576400     -4.95378600
