12
b3lypvdz=-157.109237519701 
C          -4.82659400     -8.29799500      4.47762000
C          -3.83529200    -10.60729100      4.16654400
C          -3.67071500    -11.44918200      3.14165600
C          -3.57856100     -9.12518400      4.13037200
H          -4.59970200     -7.21892800      4.47904200
H          -5.21070400     -8.55974600      5.47858600
H          -5.63667000     -8.47849200      3.75166500
H          -4.20011700    -11.00243800      5.12496400
H          -3.88480100    -12.51742300      3.23587200
H          -3.31235500    -11.09882200      2.16759700
H          -3.20053400     -8.83783400      3.13388400
H          -2.77875500     -8.87956500      4.85509800
