19
b3lypvdz=-273.746977414864 
C          -1.84118100    -26.13179200     -3.00883600
C          -3.06458000    -25.78111900     -2.13910100
C          -1.36590500    -27.56753800     -2.71939200
C          -2.15809400    -25.95607200     -4.47246600
C          -2.44438900    -25.70399400     -7.56208000
C          -1.87324000    -24.83587000     -6.71068700
C          -1.59633500    -25.04050900     -5.28174900
H          -1.02409200    -25.43473700     -2.74883500
H          -2.82995200    -25.89779700     -1.06706400
H          -3.91810300    -26.44267400     -2.36964900
H          -3.38945200    -24.74179700     -2.30760400
H          -1.13085900    -27.69554800     -1.64917400
H          -0.46176100    -27.81784500     -3.29753100
H          -2.14801400    -28.30248600     -2.97896700
H          -2.92678400    -26.63245600     -4.87211300
H          -2.75019000    -26.70823200     -7.25521900
H          -2.61764100    -25.43204300     -8.60609700
H          -1.55726800    -23.86353900     -7.10699700
H          -0.86456000    -24.34895200     -4.84444100
