16
b3lypvdz=-234.461097222351 
C          -1.65873700    -25.93673300     -3.02852600
C          -1.41565900    -27.39527800     -2.60736000
C          -2.05250800    -25.80084800     -4.47240000
C          -2.60458600    -25.62687900     -7.53015900
C          -1.74187700    -24.89552500     -6.80560100
C          -1.40259600    -25.05595800     -5.38447300
H          -0.75797100    -25.32983900     -2.83185700
H          -2.46449600    -25.51797300     -2.39397400
H          -1.17009100    -27.45839200     -1.53444600
H          -0.58268500    -27.84028600     -3.17589900
H          -2.31147500    -28.01552100     -2.78273000
H          -2.94677300    -26.36327600     -4.77300200
H          -3.15395900    -26.47328200     -7.10787900
H          -2.78307400    -25.40072900     -8.58397900
H          -1.20942200    -24.08369400     -7.31501600
H          -0.52809100    -24.48498600     -5.04800000
