15
b3lypvdz=-308.422669395367 
O          -2.33818100      0.60018300     -3.81467500
C          -1.16028400      0.19073800     -3.23495700
C          -0.28159700     -0.55863700     -3.90080200
C          -4.22754700      4.11246400     -1.91547800
C          -2.89552800      1.78080500     -3.40963300
C          -2.27222000      2.79874900     -2.78544500
C          -2.95784500      4.01871600     -2.34464800
H          -1.04074900      0.48586900     -2.18602500
H           0.60500800     -0.93608200     -3.39054500
H          -0.44069700     -0.81908600     -4.94918800
H          -4.66087300      5.07893700     -1.64725600
H          -4.86755000      3.23149800     -1.80696100
H          -3.94767400      1.82334200     -3.69996000
H          -1.18952900      2.74955000     -2.63451800
H          -2.34963500      4.93165300     -2.36990900
