19
b3lypvdz=-273.745476384789 
C          -3.43469000     -9.03675200      4.40440100
C          -2.73196000     -8.49405600      5.65275200
C          -4.79557600     -8.34319400      4.18046300
C          -3.61255400    -10.53701800      4.38284300
C          -3.33241000    -11.40083700      5.37533800
C          -3.53440200    -12.86181600      5.35848900
C          -4.05085200    -13.61523100      4.37312400
H          -2.80600800     -8.78376400      3.52528300
H          -2.57134200     -7.40737400      5.56058000
H          -1.75018100     -8.96907500      5.80692900
H          -3.33780600     -8.66268300      6.56015400
H          -4.67111400     -7.25061800      4.08949000
H          -5.47571800     -8.54552600      5.02611100
H          -5.28732200     -8.70409500      3.26153000
H          -4.03775800    -10.92709900      3.44823500
H          -2.90441900    -11.00887500      6.30332100
H          -3.21830400    -13.37474400      6.27480600
H          -4.39494000    -13.18965900      3.42564900
H          -4.14894400    -14.69728400      4.49000200
