17
b3lypvdz=-309.658536833621 
O          -2.04908100      0.67932900     -3.89485800
C          -4.82667600      5.41193300     -1.56030200
C          -5.45713200      6.42132900     -2.53301700
C          -4.15795000      4.25972800     -2.25806400
C          -2.71378300      1.71019500     -3.30742800
C          -2.15607800      2.77843900     -2.70493500
C          -2.86994800      3.90298600     -2.09246200
H          -1.09565200      0.85465900     -3.83889200
H          -4.09553900      5.92194500     -0.90811400
H          -5.62278700      5.02713500     -0.89224900
H          -5.96986900      7.23184300     -1.98871800
H          -6.20342900      5.93374500     -3.18408100
H          -4.69184400      6.87626800     -3.18366300
H          -4.79419500      3.69820500     -2.95632100
H          -3.79438800      1.55624900     -3.37410600
H          -1.06010700      2.81542300     -2.64009900
H          -2.25934100      4.52079000     -1.42138900
