17
b3lypvdz=-272.520420524479 
C          -3.11387400      6.70807500      2.40628000
C          -4.42440500      5.63353300     -0.21159800
C          -3.94867100      6.86969700      0.02317000
C          -3.30990500      7.36531600      1.25112800
C          -5.07638400      5.19583700     -1.49788200
C          -4.34620100      4.05559000     -2.16591500
C          -4.86602500      2.85104000     -2.41850800
H          -2.61999300      7.19388100      3.25084500
H          -3.43878000      5.67416400      2.55587700
H          -4.33609900      4.85864700      0.56066900
H          -4.04055700      7.60839500     -0.78324700
H          -2.95943500      8.40252300      1.19453400
H          -6.11865600      4.88329400     -1.29815800
H          -5.12790200      6.05869400     -2.18779700
H          -3.30462500      4.26046500     -2.44468800
H          -4.28188400      2.06632400     -2.90662900
H          -5.89830400      2.60552600     -2.14708300
