19
b3lypvdz=-273.745513935811 
C          -0.06301700    -22.16026600     -1.23819100
C           0.43624500    -23.40718100     -1.22134500
C          -0.18096000    -24.64026900     -1.74509200
C          -1.34951900    -24.73910200     -2.40423200
C          -1.99978400    -26.00094900     -2.92127300
C          -3.38694100    -26.18482900     -2.26893200
C          -1.14561500    -27.26469900     -2.77918200
H           0.50186800    -21.32600400     -0.81575400
H          -1.04335300    -21.92451100     -1.66357200
H           1.42273700    -23.55056000     -0.76478500
H           0.39977400    -25.55188700     -1.57222000
H          -1.92870900    -23.82395700     -2.58957500
H          -2.18317700    -25.83665300     -4.00359300
H          -3.28359900    -26.36423500     -1.18452800
H          -3.91820700    -27.04438600     -2.71178700
H          -4.02004600    -25.29149500     -2.40320000
H          -0.97630300    -27.51817200     -1.71847300
H          -0.16223400    -27.14918300     -3.26150200
H          -1.65316000    -28.12436300     -3.24656400
