12
b3lypvdz=-157.109239698796 
C          -3.26886800    -25.94037900     -2.23825000
C          -2.10697100    -26.03379700     -4.48989100
C          -1.46347800    -25.15325800     -5.26133500
C          -1.95381400    -26.17274000     -2.99924800
H          -3.13034700    -26.07597000     -1.15266100
H          -4.04991600    -26.64783300     -2.56678100
H          -3.65214000    -24.92004300     -2.40896700
H          -2.82567000    -26.72299800     -4.95614600
H          -1.63005800    -25.10716700     -6.34149800
H          -0.74253800    -24.44321300     -4.84038900
H          -1.17669500    -25.47615000     -2.63906300
H          -1.58850400    -27.19335300     -2.77067100
