17
b3lypvdz=-309.655205501478 
O          -2.18336300      0.51084600     -3.72378100
C          -5.11463200      5.24582500     -1.56381700
C          -5.17897300      6.47192100     -2.48896900
C          -4.29107600      4.12260600     -2.12715500
C          -4.75912400      2.88857100     -2.39756500
C          -4.04895300      1.73156500     -2.94305600
C          -2.73170300      1.64790000     -3.20435200
H          -1.23261100      0.64289500     -3.83670500
H          -4.68983300      5.56501400     -0.59227400
H          -6.13465700      4.88175300     -1.35050500
H          -5.75588000      7.29004100     -2.02712700
H          -5.65137000      6.21793500     -3.45211200
H          -4.16900600      6.85823500     -2.70854000
H          -3.24023700      4.36407600     -2.33821500
H          -5.82034400      2.70613400     -2.18576600
H          -4.64288200      0.83756300     -3.15824500
H          -2.04665400      2.48121900     -3.01141500
