13
b3lypvdz=-704.334566199633 
C          -4.43774400      9.92632600      9.77727400
C          -5.20724500      9.29526100      8.89322400
S          -5.01736100      7.51987900      8.65137800
O          -3.94816600      7.04404800      9.57159000
O          -6.38350600      6.92842500      8.64894800
C          -4.36336200      7.41072900      6.97591700
C          -5.10706700      6.87272300      6.01174100
H          -4.56931500     10.99319800      9.97890200
H          -3.66813400      9.37879600     10.32845100
H          -6.01501400      9.74539900      8.31043200
H          -3.33363800      7.76126400      6.87034900
H          -4.71278600      6.74840700      4.99918000
H          -6.12416200      6.53234500      6.22481300
