16
b3lypvdz=-234.458482676888 
C          -0.02198700    -24.79028800     -1.67506700
C          -1.16244200    -24.66898500     -2.37656200
C          -1.83826000    -23.36893200     -2.61502300
C          -1.46656600    -22.15289000     -2.18981600
C          -1.87765700    -25.85598600     -2.99811800
C          -1.23981600    -27.22921600     -2.80356100
H           0.47767800    -23.92378500     -1.23629600
H           0.45376200    -25.75803400     -1.51278000
H          -2.75565700    -23.43642400     -3.21356700
H          -0.56912200    -21.98770900     -1.58686300
H          -2.05879300    -21.26950100     -2.43908300
H          -2.91221300    -25.86931100     -2.60318100
H          -1.99648400    -25.65099600     -4.07993300
H          -1.17567900    -27.50159500     -1.73712800
H          -0.21999100    -27.26418200     -3.22045500
H          -1.83467300    -28.00516600     -3.31086700
