17
b3lypvdz=-272.517831792557 
C          -4.11183500      4.70514800      1.16970800
C          -4.25894300      5.44815300      0.05932300
C          -3.64838300      6.78929600     -0.09348200
C          -3.44970200      7.67867800      0.88991700
C          -5.06379900      4.94546200     -1.12505400
C          -4.25565300      4.47366500     -2.31744800
C          -2.94032900      4.24313700     -2.34782000
H          -3.49717300      5.04300000      2.00796900
H          -4.59361800      3.72838900      1.26387700
H          -3.37192200      7.06696300     -1.11799800
H          -3.75318700      7.47401000      1.92113000
H          -2.98628400      8.64810100      0.68942000
H          -5.71818700      4.11571600     -0.80021500
H          -5.75029400      5.74294800     -1.46776500
H          -4.84528700      4.29340600     -3.22576600
H          -2.45373300      3.88351700     -3.25846300
H          -2.30647100      4.39911000     -1.46963500
