16
b3lypvdz=-234.460983595812 
C          -0.77244600     -7.83199000      0.74895800
C          -2.53042400     -8.65431700      3.17963200
C          -2.85575000     -7.81321100      2.18139000
C          -2.02767900     -7.44104600      1.02361300
C          -3.41349700     -8.99414600      4.34565600
C          -2.79120200     -8.61800600      5.70134900
H          -0.26190300     -7.48434500     -0.15169200
H          -0.21105400     -8.50504900      1.40388200
H          -1.54376700     -9.13667500      3.17276500
H          -3.84767200     -7.34616400      2.21410800
H          -2.51422900     -6.76138700      0.31380900
H          -4.39085200     -8.49549400      4.22756000
H          -3.61340000    -10.08311700      4.34420700
H          -2.62106800     -7.53104100      5.77088700
H          -1.81755700     -9.11650500      5.84564500
H          -3.44690000     -8.91910800      6.53473200
