9
b3lypvdz=-626.975854290367 
S          -0.16708200    -19.07887900      4.60147500
O          -0.93930100    -20.05695300      5.40734600
O           1.18895700    -18.62057600      4.98554600
C          -0.10378000    -19.65314000      2.89774000
C          -0.70001000    -20.79803200      2.57360100
H          -0.96374800    -17.94701100      4.45157600
H           0.49123500    -19.02627200      2.22789200
H          -0.63628400    -21.19810800      1.55775700
H          -1.25668600    -21.36343000      3.32646700
