17
b3lypvdz=-272.520351333699 
C          -4.44721400      5.77651800     -0.16630600
C          -4.02691600      7.02349100      0.06206500
C          -5.03859100      5.27972900     -1.46534900
C          -4.26963700      4.12559600     -2.05757000
C          -4.79060100      2.91588400     -2.32893100
C          -4.09546200      1.75316300     -2.90882300
C          -2.80700800      1.66413100     -3.27825300
H          -4.35947900      5.02620000      0.63077000
H          -3.61194300      7.31733500      1.03004300
H          -4.08767300      7.79884800     -0.71016600
H          -6.08642100      4.96619600     -1.30061300
H          -5.06510400      6.12013500     -2.18573800
H          -3.20857000      4.32140000     -2.26012300
H          -5.85242100      2.75731700     -2.10159800
H          -4.72492200      0.86590700     -3.04615400
H          -2.10773600      2.49985500     -3.17668100
H          -2.40850400      0.73729500     -3.69747400
