16
b3lypvdz=-234.461043967974 
C          -0.22466600    -22.10279100     -1.19423700
C          -1.56099100    -24.61478800     -2.44707600
C          -1.64375700    -23.34278100     -2.87711600
C          -0.95761600    -22.16810300     -2.31801900
C          -2.29919000    -25.77822500     -3.04518700
C          -3.22339000    -26.48102600     -2.03614100
H           0.24150900    -21.16531200     -0.88336600
H          -0.06636300    -22.97032900     -0.54676100
H          -0.91842700    -24.84950900     -1.58741700
H          -2.28239600    -23.13921700     -3.74559800
H          -1.07946700    -21.24726900     -2.90053700
H          -1.56682300    -26.51732600     -3.42393300
H          -2.88327100    -25.43837700     -3.91780900
H          -2.65670500    -26.84313300     -1.16137900
H          -3.72077700    -27.35115500     -2.49494400
H          -4.00316800    -25.79425800     -1.66748100
