13
b3lypvdz=-195.168597138983 
C          -0.19011500    -24.68988700     -1.75207700
C          -1.36065200    -24.70202600     -2.39485400
C          -2.02235600    -25.92686800     -2.98097400
C          -2.29518600    -25.79772900     -4.46090500
C          -3.49618600    -25.89851500     -5.03647100
H           0.22889300    -23.76442200     -1.34728700
H           0.38985600    -25.60757100     -1.60128300
H          -1.90605100    -23.75869300     -2.53335500
H          -2.97849300    -26.11971800     -2.45876900
H          -1.37221400    -26.80312900     -2.79745800
H          -1.41593500    -25.59400200     -5.08718600
H          -3.62210000    -25.79528300     -6.11818100
H          -4.39916000    -26.09365600     -4.44720000
