17
b3lypvdz=-272.519369581396 
C          -3.32068300      6.57303300      2.51349700
C          -3.22144200      5.35489500      1.95651900
C          -3.72320400      4.91932000      0.64501400
C          -4.35095000      5.67963700     -0.27056500
C          -4.87683300      5.20633700     -1.60333500
C          -4.39410600      3.85374700     -2.05338300
C          -5.17684300      2.79257500     -2.26733100
H          -2.90501000      6.77389900      3.50292700
H          -3.81584700      7.40895600      2.01135400
H          -2.71279200      4.57283900      2.53213800
H          -3.56398000      3.86165800      0.41083300
H          -4.52713500      6.74010900     -0.05430000
H          -5.98440700      5.21619700     -1.58002500
H          -4.59992700      5.95991600     -2.36720800
H          -3.31222600      3.76492400     -2.21477900
H          -4.77080800      1.83728200     -2.60985100
H          -6.25960800      2.84097800     -2.10910400
