15
b3lypvdz=-308.421919449767 
C          -3.23404400      7.02201900      4.72987800
C          -4.46013900      7.55392400      4.77061100
O          -2.71924500      6.17643400      3.78259300
C          -3.32704000      6.10705500      2.55556000
C          -3.23211000      4.99353500      1.81008900
C          -3.75354100      4.81622400      0.45161600
C          -4.54165600      5.64825300     -0.25105300
H          -2.48296300      7.20337500      5.50248000
H          -4.71815800      8.21965400      5.59503700
H          -5.22729700      7.33423600      4.02625500
H          -3.82034100      7.02914400      2.23226200
H          -2.70330300      4.14626600      2.25691800
H          -3.45550100      3.87498500     -0.02394800
H          -4.89822400      6.60116000      0.15059900
H          -4.85793900      5.39413600     -1.26469700
