7
b3lypvdz=-153.728543060572 
O           0.44472600    -21.14972700     -0.93265100
C          -0.18510600    -22.27399400     -1.39231700
C          -1.29084300    -22.22025900     -2.13892900
H           1.22242600    -21.41422500     -0.42472400
H           0.27172700    -23.23239300     -1.11164200
H          -1.76119200    -23.14056000     -2.48520300
H          -1.73573900    -21.26044200     -2.41283400
