16
b3lypvdz=-234.452158330698 
C          -3.71363400      4.82107600      0.77334500
C          -4.49175300      5.55667800     -0.02590700
C          -5.06464400      5.13902000     -1.36922400
C          -6.59755200      5.03179300     -1.27946200
C          -4.38235800      3.91819400     -1.94212500
C          -4.95615800      2.76053500     -2.28365200
H          -3.36784800      5.20545500      1.73641200
H          -3.40105600      3.80949000      0.49968400
H          -4.78788700      6.56238500      0.29956900
H          -4.84061500      5.97359100     -2.06655600
H          -7.02747700      5.96912900     -0.89095700
H          -6.89788200      4.22082800     -0.59645000
H          -7.04342100      4.83970000     -2.26831200
H          -3.30034400      4.03286300     -2.08578500
H          -4.36764200      1.94054200     -2.70373300
H          -6.02752800      2.57892100     -2.16184700
