19
b3lypvdz=-273.732168899426 
C          -3.79471800      5.01897900      0.76214600
C          -4.44749200      5.72754500     -0.16360600
C          -5.04816500      5.22925100     -1.47414900
C          -6.50923600      4.79856700     -1.18572900
C          -5.06684800      6.39929200     -2.49049600
C          -4.31187400      4.06254200     -2.12452200
C          -3.00030100      3.80806200     -2.10445900
H          -3.46618700      5.48399500      1.69530800
H          -3.56302800      3.95952100      0.62867700
H          -4.65395300      6.78594600      0.04185900
H          -7.07634400      5.61840500     -0.71565600
H          -6.53258900      3.93447700     -0.50353100
H          -7.02434000      4.52226100     -2.12181700
H          -5.66954100      7.23924400     -2.10442500
H          -5.50327400      6.08116500     -3.45084800
H          -4.04586400      6.76111500     -2.68662100
H          -4.95832500      3.41049900     -2.72652800
H          -2.58332200      2.96645200     -2.66408400
H          -2.29670000      4.42078500     -1.53532000
