17
b3lypvdz=-272.517246016568 
C          -3.94436000      4.90188500      0.77241200
C          -4.49976600      5.67936300     -0.16204900
C          -4.85491500      5.27723600     -1.57699200
C          -4.30765100      3.93988600     -2.03806100
C          -5.12021400      2.87791600     -2.18167400
C          -2.13844700      2.90129000     -2.83666400
C          -2.85124400      3.90886400     -2.31148200
H          -3.73845300      5.28745900      1.77413700
H          -3.67754800      3.86075800      0.57253500
H          -4.75367800      6.71604400      0.09342500
H          -5.95536500      5.28714400     -1.67726200
H          -4.49393100      6.07093900     -2.25975200
H          -4.74888500      1.90327900     -2.50584900
H          -6.18955400      2.95555100     -1.97179900
H          -2.59312700      1.95084400     -3.12818800
H          -1.06294400      3.00078600     -2.99942500
H          -2.32151800      4.83275600     -2.05281200
