17
b3lypvdz=-309.658316631509 
O           0.59010100    -21.06103500     -0.75326400
C          -0.04764700    -22.16930900     -1.21278100
C           0.44791700    -23.42165900     -1.24785400
C          -0.23085600    -24.61804800     -1.74869700
C          -1.38588200    -24.70783200     -2.43520200
C          -2.01930000    -25.99557600     -2.87941000
C          -3.41464000    -26.22579000     -2.27504600
H           1.48034900    -21.31511100     -0.45982000
H          -1.05368100    -21.91849000     -1.55939700
H           1.45911800    -23.57160300     -0.84841900
H           0.29162600    -25.55766100     -1.52847300
H          -1.93318400    -23.79148700     -2.69540800
H          -1.35553200    -26.83886300     -2.61956600
H          -2.11416300    -25.99940300     -3.98291200
H          -3.36431700    -26.28840600     -1.17515500
H          -3.86196500    -27.15964100     -2.65369300
H          -4.10084200    -25.39958500     -2.53040100
