17
b3lypvdz=-309.658654224067 
O          -2.02385900      0.77197400     -3.83545300
C          -5.14776000      5.37437900     -1.71470100
C          -6.33080400      4.84744500     -0.88340900
C          -4.36804600      4.28401300     -2.39438600
C          -2.76125900      1.76364600     -3.26899700
C          -2.28588900      2.88528100     -2.69391900
C          -3.09022900      3.96489800     -2.11483300
H          -1.08719200      1.02579700     -3.80068200
H          -4.47214500      5.96511900     -1.07144300
H          -5.54284300      6.06936400     -2.48131500
H          -6.89732900      5.67849400     -0.43116200
H          -5.98392000      4.18577000     -0.07256200
H          -7.03116800      4.26828700     -1.50995700
H          -4.91101100      3.72068300     -3.16579700
H          -3.82813000      1.52883800     -3.32181000
H          -1.19565400      3.00231900     -2.62227400
H          -2.56496200      4.58349400     -1.37519900
