16
b3lypvdz=-234.452161536225 
C          -2.68890900     -8.66763300      3.00423200
C          -3.02062700     -7.72846500      2.11356800
C          -3.49562200     -9.11488300      4.20116200
C          -4.78561200     -8.31023400      4.43935600
C          -3.80378700    -10.60189800      4.18102700
C          -3.68588000    -11.42951800      3.13849400
H          -1.72835200     -9.18554300      2.88887800
H          -2.35034300     -7.47419000      1.28797200
H          -3.96282700     -7.17682900      2.16622500
H          -2.84782900     -8.95303300      5.08845800
H          -4.56887100     -7.23813900      4.57273800
H          -5.29892300     -8.66719100      5.34696800
H          -5.48470300     -8.42365000      3.59477000
H          -4.18176400    -10.99774100      5.13281500
H          -3.95536100    -12.48567100      3.22234900
H          -3.32619000    -11.08258100      2.16568700
