16
b3lypvdz=-234.452940396355 
C          -0.08312000    -24.77464100     -1.70459400
C          -1.22150900    -24.72933100     -2.40153900
C          -1.99359200    -25.92810500     -2.89330600
C          -3.41662800    -25.94030200     -2.29307500
C          -2.06457800    -26.01775300     -4.40641300
C          -1.38024400    -25.28230800     -5.28692300
H           0.41709600    -23.86430900     -1.36354400
H           0.39156900    -25.72729900     -1.44677100
H          -1.66534600    -23.75384500     -2.64187000
H          -1.47689800    -26.84077700     -2.53633500
H          -3.37791300    -25.95920200     -1.19244600
H          -3.98058900    -26.82529600     -2.63282000
H          -3.98256500    -25.04458600     -2.60192400
H          -2.75836700    -26.78294700     -4.78026800
H          -1.50344500    -25.43231000     -6.36294100
H          -0.66917100    -24.51439000     -4.96832900
