13
b3lypvdz=-704.333292184268 
C          -5.34852600      9.26216500      8.84219000
C          -6.54486400      9.84471900      8.81514400
S          -5.20777000      7.48604500      8.56798100
O          -4.30316100      6.95724500      9.62247800
O          -6.57837100      6.94334200      8.35357900
C          -4.31550600      7.37265800      7.00571800
C          -4.91869500      6.86311600      5.93400000
H          -4.40374000      9.75280400      9.09011700
H          -6.65787100     10.90965000      9.03659600
H          -7.43852500      9.25931300      8.58276000
H          -3.26946000      7.68441400      7.06237900
H          -4.37750700      6.73102400      4.99289500
H          -5.96640500      6.55510600      5.98546300
