19
b3lypvdz=-273.736516395201 
C          -2.70291700     -8.60726600      3.04568200
C          -3.05217600     -7.74224300      2.08951400
C          -3.50809600     -9.02017500      4.26392200
C          -2.65787600     -8.70683000      5.52287100
C          -4.85564600     -8.27524100      4.37088000
C          -3.79570500    -10.51787400      4.24777900
C          -3.65043000    -11.35964300      3.22073500
H          -1.71674100     -9.08557000      2.98696100
H          -2.37141600     -7.51062100      1.26582800
H          -4.01774500     -7.23075800      2.08159700
H          -2.46021200     -7.62567000      5.59933200
H          -1.69015800     -9.23232800      5.48932300
H          -3.18455500     -9.02763900      6.43711700
H          -4.69937100     -7.18801200      4.46468100
H          -5.41062900     -8.61490700      5.26088600
H          -5.48696200     -8.46787400      3.49001300
H          -4.18377700    -10.90099800      5.20104600
H          -3.90967700    -12.41724700      3.31750200
H          -3.27971100    -11.02460500      2.24833100
