17
b3lypvdz=-272.520290614281 
C          -0.20557400    -24.71839200     -1.63006200
C          -1.33689300    -24.68968800     -2.33897600
C          -2.02027100    -25.89617900     -2.93984200
C          -2.22649000    -25.77770000     -4.42840500
C          -3.41690600    -25.86299800     -5.04773900
C          -3.68186800    -25.75963800     -6.49404400
C          -2.79645200    -25.54243600     -7.48055200
H           0.23164400    -23.80563300     -1.21608000
H           0.32271600    -25.65800700     -1.43275400
H          -1.82935200    -23.72585700     -2.52502100
H          -3.00127700    -26.04938100     -2.45231100
H          -1.40883200    -26.79189700     -2.71795000
H          -1.31678600    -25.59979400     -5.01689200
H          -4.30293700    -26.03509700     -4.42346900
H          -4.73530000    -25.87698500     -6.77481000
H          -1.72608700    -25.41145500     -7.29197500
H          -3.12323600    -25.48336400     -8.52151800
