13
b3lypvdz=-704.330222864082 
S          -0.23369400    -19.00801800      4.48516600
O          -1.17516400    -19.77124200      5.33730900
O           1.08978000    -18.55909800      4.98149500
C           0.02254900    -19.89741800      2.91174000
C          -0.67923900    -21.02769900      2.76199300
C           0.94423200    -19.30725400      0.68184200
C           1.02061800    -19.29269300      2.02071100
H          -0.90466900    -17.87958000      4.02714900
H          -0.53048700    -21.66631400      1.88704100
H          -1.39275700    -21.33550300      3.52932000
H           0.09665000    -19.75913700      0.15788700
H           1.73238100    -18.86184000      0.07006200
H           1.85750200    -18.79560300      2.52168500
