15
b3lypvdz=-308.423259195916 
O          -4.14206800    -14.70224300      3.84504400
C          -3.25552500    -15.64469300      4.28461600
C          -3.60951200    -16.93680000      4.37707000
C          -2.71206100    -18.01523100      4.79780400
C          -1.37939700    -18.06919800      4.63308100
C          -3.75483100    -13.38818800      3.87672500
C          -4.56357200    -12.41202100      3.46261200
H          -2.26244100    -15.27162200      4.55931400
H          -4.64723200    -17.19733900      4.14626700
H          -3.20740400    -18.86349000      5.28668300
H          -0.82833700    -17.28805900      4.10042000
H          -0.79901800    -18.90945100      5.02115800
H          -2.74526900    -13.20902200      4.26349500
H          -4.22341100    -11.37732300      3.50046600
H          -5.56462200    -12.62762000      3.08484500
