15
b3lypvdz=-308.422944126548 
C           1.67554000     -3.81318800     -1.11102100
C           1.39197200     -4.87798300     -1.87995700
C           1.03667300     -6.22348000     -1.41771700
C           0.39066100     -6.48437000     -0.26982100
O           0.20116300     -7.77490200      0.15180500
C          -0.91558400     -8.06425400      0.89481400
C          -2.02555200     -7.32901800      1.01687600
H           1.89223600     -2.83896700     -1.55564100
H           1.71640000     -3.88291700     -0.01954100
H           1.42896800     -4.75585100     -2.96996000
H           1.29298300     -7.07226300     -2.06004800
H           0.01828100     -5.70961400      0.40974700
H          -0.78844700     -9.03061400      1.38774400
H          -2.82951200     -7.69338600      1.65807600
H          -2.17558100     -6.38539300      0.49034300
