15
b3lypvdz=-308.422670748881 
C           0.34835500     -3.57589800     -1.18051200
C           0.92158700     -6.41429800     -0.14961300
C           0.41866900     -5.38458700      0.55733700
C           0.44100200     -3.99388700      0.09343100
O           0.90677200     -7.73484600      0.19884100
C          -0.02539300     -8.17081100      1.10896000
C           0.20802100     -9.21699000      1.90150500
H           0.42191900     -2.51480700     -1.43109300
H           0.18798600     -4.27350800     -2.00770900
H           1.44839600     -6.27794900     -1.09678000
H           0.01191400     -5.56740600      1.55689000
H           0.53744600     -3.23818500      0.88287000
H          -0.97623900     -7.62545100      1.08522700
H          -0.58336900     -9.58754500      2.55372500
H           1.17453600     -9.72523100      1.89772100
