16
b3lypvdz=-234.452948299743 
C          -2.65781400     -8.58937200      3.05050300
C          -3.07480000     -7.69975700      2.14577100
C          -3.41837000     -9.00063600      4.28670200
C          -2.59963500     -8.68251000      5.55735100
C          -3.82780400    -10.46203500      4.28166100
C          -3.74730900    -11.31451000      3.25594400
H          -1.67843600     -9.06880500      2.91977000
H          -2.46435600     -7.43488700      1.27813100
H          -4.04572100     -7.20188300      2.23834000
H          -4.34915800     -8.40264600      4.33300900
H          -2.36860600     -7.60760200      5.61804500
H          -1.64751300     -9.23889400      5.56070800
H          -3.15614200     -8.96712900      6.46604400
H          -4.23397000    -10.81880400      5.23761100
H          -4.07930000    -12.35099600      3.35746100
H          -3.36066600    -11.00753200      2.28024800
