16
b3lypvdz=-234.45851269137 
C          -3.45963800     -9.15455700      4.33395800
C          -4.82389500     -8.44693600      4.25175800
C          -3.57268400    -10.66468700      4.43291100
C          -3.29055000    -11.30441700      5.58205200
C          -4.26743400    -12.65939500      3.02216700
C          -4.01447800    -11.35330700      3.19493600
H          -2.86614400     -8.89703600      3.43585300
H          -2.89748000     -8.77287800      5.20204300
H          -4.69644500     -7.35459900      4.16934700
H          -5.42736400     -8.65677200      5.15105400
H          -5.40737000     -8.78201900      3.37686100
H          -3.37496600    -12.38960000      5.68543100
H          -2.96093200    -10.75317900      6.46627000
H          -4.17857600    -13.38885800      3.83288500
H          -4.57711900    -13.04400500      2.04747600
H          -4.13782500    -10.69815400      2.32369700
