19
b3lypvdz=-273.742842172968 
C          -1.60175300     -9.75761500      2.67840200
C          -2.39332000     -8.77409100      3.14452100
C          -2.50265100     -7.45203500      2.49175400
C          -2.10663400     -7.11627300      1.25428700
C          -3.23975100     -8.99802000      4.39526800
C          -2.82981600     -8.07786500      5.56095700
C          -4.74509300     -8.86123400      4.09528600
H          -0.97048300     -9.63370600      1.79584000
H          -1.55488100    -10.72749500      3.17920500
H          -2.97595500     -6.66536400      3.08886000
H          -1.65719800     -7.83414600      0.56330700
H          -2.23469200     -6.09597500      0.88623600
H          -3.05975300    -10.03587200      4.72396300
H          -2.98542900     -7.01221100      5.32584300
H          -1.76940100     -8.21433700      5.82675700
H          -3.43096400     -8.30356000      6.45705000
H          -5.01060300     -7.83042000      3.80700300
H          -5.34567600     -9.12244100      4.98221800
H          -5.04545000     -9.53104000      3.27384300
