16
b3lypvdz=-234.45968322844 
C          -0.27064500     -8.83992900      2.15206900
C          -1.33913100     -9.35586300      2.77689300
C          -2.63866600     -8.67931300      2.98974200
C          -3.17303900     -7.84920300      2.07641200
C          -3.34815300     -8.99447900      4.29282500
C          -2.60790100     -8.46797900      5.53311900
H          -0.27367600     -7.81889300      1.76005200
H           0.64440700     -9.42324000      2.01992400
H          -1.26064800    -10.36717900      3.19796800
H          -2.68162000     -7.66026800      1.11853700
H          -4.12857800     -7.34941400      2.25600800
H          -4.36901000     -8.58041700      4.26292400
H          -3.45875900    -10.09251500      4.37967900
H          -2.52945600     -7.36833400      5.50720100
H          -1.58395600     -8.87230000      5.59300400
H          -3.13696700     -8.75227500      6.45794200
