15
b3lypvdz=-308.423095939244 
O          -3.82649100    -14.77187600      5.07083000
C          -2.91979300    -15.72144300      4.63707400
C          -3.49227400    -17.06654400      4.82729200
C          -3.02957000    -18.21315700      4.31352200
C          -1.69754300    -15.42960800      4.15833400
C          -4.06405900    -12.44555000      5.39917600
C          -3.69050400    -13.47673800      4.64053400
H          -4.39526700    -17.07430600      5.44623000
H          -2.14860100    -18.25086200      3.66684000
H          -3.52838300    -19.16059900      4.52725600
H          -1.02969700    -16.23307700      3.84943100
H          -1.32715500    -14.40733600      4.08930500
H          -4.02357600    -11.43408600      4.99354400
H          -4.43025300    -12.59482200      6.41673700
H          -3.30983300    -13.36929600      3.61859500
