16
b3lypvdz=-234.460245372056 
C          -2.07693500    -25.88067100     -2.92968000
C          -3.31586700    -26.17304400     -2.08215800
C          -2.29229600    -25.75225500     -4.41435200
C          -3.45487100    -25.90862000     -5.07222100
C          -3.67111500    -25.78902300     -6.52526600
C          -2.76426000    -25.51455900     -7.47748800
H          -1.59060200    -24.95276200     -2.56863600
H          -1.31921600    -26.67224700     -2.75971400
H          -3.04919900    -26.23096400     -1.01450700
H          -3.78231700    -27.13308800     -2.36026100
H          -4.07833800    -25.38416200     -2.19700100
H          -1.38810000    -25.50663100     -4.98676000
H          -4.35329000    -26.14890400     -4.49469100
H          -4.70736900    -25.94952100     -6.84553000
H          -1.70770300    -25.34058600     -7.25156900
H          -3.05932100    -25.45096300     -8.52756600
