15
b3lypvdz=-308.422957939743 
O          -2.25048700      0.67698000     -3.66743000
C          -1.12404400      0.09422400     -3.14932200
C          -0.72834000      0.08305800     -1.87258100
C          -4.45648400      4.16518600     -2.11980300
C          -4.93351100      2.93858000     -2.39230300
C          -4.20702000      1.84255100     -3.03834000
C          -2.88262000      1.64805800     -2.93632600
H          -0.56554600     -0.40076200     -3.94718000
H           0.20688900     -0.41500500     -1.61396400
H          -1.30528400      0.53864600     -1.06601900
H          -5.07014600      4.90256500     -1.59629100
H          -3.45198000      4.47636900     -2.42084400
H          -5.97198500      2.71436800     -2.11948300
H          -4.78581400      1.12063800     -3.62402300
H          -2.22553000      2.26124500     -2.30888900
