15
b3lypvdz=-308.422746549902 
C          -4.16846100      7.12579900      7.45880300
C          -2.94266300      7.41745200      6.98811100
C          -2.50347800      7.52705700      5.59596200
C          -3.22158400      7.18674800      4.51164000
O          -2.70938900      7.34252900      3.25699400
C          -3.47271300      6.95944200      2.18834900
C          -3.02135400      7.04886100      0.93627700
H          -4.35248200      7.06314800      8.53346000
H          -5.02699100      6.94391600      6.80560400
H          -2.15178600      7.60752600      7.72270600
H          -1.49430700      7.90897300      5.41601600
H          -4.23291200      6.76776000      4.55955400
H          -4.47220600      6.58474000      2.43943200
H          -3.66409000      6.73899200      0.11288400
H          -2.02078300      7.42735800      0.72080600
