19
b3lypvdz=-273.746784784206 
C          -0.30284000    -22.07363400     -1.17171900
C          -1.54982300    -24.69050200     -2.29760300
C          -1.53386700    -23.47631700     -2.87569900
C          -0.89444200    -22.25424000     -2.36423000
C          -2.22697100    -25.91394100     -2.85928300
C          -3.31987700    -26.42112900     -1.89859000
C          -1.20003000    -27.02530900     -3.14732500
H           0.14351700    -21.11248600     -0.90787700
H          -0.24463300    -22.86638700     -0.41988700
H          -1.03486600    -24.83925100     -1.33838200
H          -2.04427100    -23.36560300     -3.84009600
H          -0.92189300    -21.40157500     -3.05319100
H          -2.70944900    -25.63116700     -3.81257600
H          -2.88773700    -26.70022200     -0.92184100
H          -3.81772100    -27.31542600     -2.30969700
H          -4.08633500    -25.65009800     -1.72016300
H          -0.68497900    -27.33618300     -2.22123200
H          -0.43301900    -26.68700300     -3.86231200
H          -1.69316300    -27.91782700     -3.56779800
