11
b3lypvdz=-231.070774475304 
O          -4.20334100    -14.72640100      3.92312400
C          -3.34953500    -15.64807000      4.47892800
C          -3.70469800    -16.92405200      4.63138300
C          -3.46788600    -12.92034200      5.37421000
C          -4.08479200    -13.41516500      4.29640800
H          -2.35234900    -15.26564500      4.72600800
H          -2.97869500    -17.64854600      5.00161000
H          -4.71025300    -17.26452700      4.37562100
H          -3.45926400    -11.83916700      5.52119600
H          -2.98631400    -13.54197800      6.13068700
H          -4.60177400    -12.78220700      3.57002600
