15
b3lypvdz=-308.422641116965 
C           1.94169100     -3.80206200     -0.96122300
C           1.83410700     -4.90671600     -1.72098300
C           1.17435600     -6.17433200     -1.40257100
C           0.50532300     -6.45402600     -0.27028300
O          -0.07226700     -7.67513800     -0.08235300
C          -0.72968800     -7.91060500      1.09433600
C          -1.31634500     -9.08189800      1.34658200
H           2.46564000     -2.91934000     -1.33338200
H           1.52024400     -3.73200700      0.04546800
H           2.29436400     -4.88132700     -2.71494200
H           1.22510100     -6.96965000     -2.15224600
H           0.37939200     -5.74074000      0.55232100
H          -0.73496200     -7.07257000      1.80176800
H          -1.82812400     -9.23027400      2.29679200
H          -1.29173200     -9.89611600      0.61981800
