13
b3lypvdz=-195.176012912534 
C          -1.96902800    -25.91238300     -2.92972300
C          -2.25717100    -25.76289100     -4.39386400
C          -2.71421800    -25.43324800     -7.45473900
C          -1.57189700    -25.25485900     -6.77051500
C          -1.34912500    -25.41909000     -5.32440400
H          -0.91128000    -25.70875000     -2.69907200
H          -2.59112700    -25.22523800     -2.32807300
H          -2.20775200    -26.93349500     -2.57926500
H          -3.29438400    -25.95405900     -4.69771300
H          -3.64726900    -25.74016200     -6.97286800
H          -2.74935300    -25.27265700     -8.53487100
H          -0.68419700    -24.94939400     -7.33695600
H          -0.32160000    -25.23207400     -4.98853700
