15
b3lypvdz=-308.421134256605 
C           0.39718600    -20.93488900      0.28007400
C           1.04254300    -19.90033200      0.82294500
O           0.05134500    -20.94524700     -1.04797000
C          -0.36862400    -22.13683000     -1.61771100
C           0.33774700    -23.36225300     -1.19636200
C          -0.21299500    -24.58235000     -1.12582800
C          -1.31168700    -22.07384300     -2.57129800
H           0.07838900    -21.80869300      0.85850800
H           1.26730100    -19.90473900      1.88952600
H           1.34257500    -19.04023100      0.22093800
H           1.39358400    -23.22926700     -0.93162600
H          -1.27362300    -24.74324600     -1.33846100
H           0.38430400    -25.45591000     -0.85466800
H          -1.58083800    -22.96156400     -3.14211700
H          -1.78650600    -21.12160500     -2.81165000
