15
b3lypvdz=-308.422671394677 
O          -4.22374600    -14.74869800      3.67650900
C          -3.27499400    -15.70882900      3.88331900
C          -1.23229700    -17.72191800      4.99510600
C          -0.99653700    -16.60096800      4.29226800
C          -1.95033000    -15.51785500      4.03161900
C          -3.94002400    -13.45196000      4.03358900
C          -4.46930400    -12.41725300      3.38138100
H          -3.73276100    -16.70098800      3.87470400
H          -2.18858300    -17.89962500      5.49551800
H          -0.46490900    -18.49339100      5.09773800
H           0.00406200    -16.45428500      3.86749400
H          -1.53621000    -14.51318700      3.89990200
H          -3.29868300    -13.35129600      4.91699900
H          -4.29071200    -11.40298700      3.73996200
H          -5.09227300    -12.56525900      2.49659300
