19
b3lypvdz=-273.742580671543 
C          -5.07232200      5.14548800     -1.55938000
C          -6.49230600      4.91525000     -1.03484100
C          -5.05437200      6.26790100     -2.61719100
C          -4.37743200      3.89589800     -2.09607100
C          -5.03959900      2.76433800     -2.39377800
C          -2.05362400      3.16984100     -2.83208100
C          -2.90726500      4.03377100     -2.26211700
H          -4.45491500      5.49399300     -0.70672000
H          -6.88182000      5.83976600     -0.57767800
H          -6.52215100      4.11907100     -0.27366200
H          -7.18491800      4.63614400     -1.84735500
H          -5.47305200      7.20136500     -2.20459600
H          -5.65948300      5.97896500     -3.49376900
H          -4.03554400      6.48701800     -2.97372100
H          -4.52441500      1.88178300     -2.78101200
H          -6.11771800      2.67030800     -2.25705800
H          -2.37818200      2.22350500     -3.27453800
H          -0.98394300      3.39035300     -2.87523000
H          -2.48514000      4.96234500     -1.85860100
