17
b3lypvdz=-272.518548882413 
C          -0.28674700    -24.58890600     -1.80783900
C          -1.49373700    -24.76585300     -2.35465300
C          -1.95016400    -26.01835400     -3.06242900
C          -2.33808100    -25.75385600     -4.51226100
C          -3.62397000    -25.82133000     -4.90017800
C          -1.25311600    -25.27814900     -6.74746800
C          -1.21657800    -25.41114600     -5.41407800
H          -0.01386800    -23.65609000     -1.30854600
H           0.47410200    -25.37603600     -1.83344500
H          -2.23049600    -23.95475600     -2.30975000
H          -2.81987100    -26.44028700     -2.53103000
H          -1.14522600    -26.77307300     -3.02324300
H          -3.93328900    -25.60180400     -5.92380200
H          -4.40995200    -26.09989300     -4.19522300
H          -2.17031800    -25.42124500     -7.32410800
H          -0.35296900    -25.02426400     -7.31081000
H          -0.25632000    -25.26535900     -4.90693500
