17
b3lypvdz=-309.65887082104 
O          -2.70802900      6.81592200      3.73684400
C          -3.41067800      6.42930100      2.63894700
C          -3.13642400      5.38175800      1.83776300
C          -3.89244900      5.01770000      0.63609700
C          -4.55094300      5.85289300     -0.18949800
C          -5.35809000      5.42448100     -1.38378700
C          -4.83716100      6.00759000     -2.70841200
H          -1.93209300      6.23958400      3.82630200
H          -4.27419000      7.08119400      2.48082400
H          -2.30017500      4.72389100      2.11195500
H          -3.90529400      3.94574100      0.39610500
H          -4.49545400      6.93573400     -0.01081000
H          -6.40847300      5.75057400     -1.24807600
H          -5.38249200      4.32156600     -1.43896900
H          -4.82629800      7.11122300     -2.68034100
H          -5.47269900      5.70053100     -3.55563700
H          -3.80745700      5.66971500     -2.91170500
