17
b3lypvdz=-272.519994742243 
C          -0.71837200     -7.93586900      0.82024700
C          -0.50302300     -8.87205000      1.75787400
C          -1.47545200     -9.35951200      2.74762600
C          -2.47393400     -8.63768400      3.28513300
C          -3.48055500     -9.13946900      4.29605100
C          -3.54702600    -10.63288500      4.45895000
C          -3.30568500    -11.29919300      5.59182400
H           0.08104400     -7.62406300      0.14343400
H          -1.69534600     -7.46066700      0.69108900
H           0.48467700     -9.34853800      1.79650000
H          -1.33553600    -10.39290500      3.08573500
H          -2.57986000     -7.58320000      3.00347100
H          -3.28479200     -8.66310800      5.27595300
H          -4.47775800     -8.76823600      3.98594500
H          -3.82345600    -11.19731500      3.55870200
H          -3.39192600    -12.38827100      5.64036800
H          -3.01930000    -10.78053700      6.51280000
