17
b3lypvdz=-272.517633844176 
C          -1.41415200     -9.65476400      2.66283800
C          -2.49178300     -8.89861800      2.93375000
C          -2.76011000     -7.58701400      2.29526900
C          -2.05356400     -6.98253200      1.32901100
C          -3.53999800     -9.31549000      3.95972400
C          -3.46768000    -10.73781100      4.43845700
C          -3.25737100    -11.11222400      5.70368300
H          -0.66016500     -9.33681700      1.93915200
H          -1.24871500    -10.60772400      3.16765400
H          -3.65022100     -7.06944800      2.67431400
H          -1.15785100     -7.43138600      0.89027100
H          -2.35509600     -6.00673900      0.94198400
H          -3.48368400     -8.62340500      4.82095600
H          -4.53770400     -9.14236300      3.50974600
H          -3.61215500    -11.50799900      3.66979000
H          -3.23439300    -12.16596800      5.99492000
H          -3.10325700    -10.37589900      6.50008400
