13
b3lypvdz=-195.167855477501 
C          -1.51488600    -24.63984800     -2.36067400
C          -1.72467500    -23.38341300     -2.76405800
C          -1.92578900    -25.89522700     -3.09504800
C          -2.39930200    -25.69319800     -4.50837300
C          -3.61869600    -25.99916400     -4.96029100
H          -1.00886900    -24.81462900     -1.40305000
H          -1.39688600    -22.53350800     -2.16058500
H          -2.23433700    -23.15817700     -3.70447300
H          -2.70774800    -26.41437500     -2.50840800
H          -1.06055900    -26.58773000     -3.09746000
H          -1.66332500    -25.26332300     -5.19977900
H          -3.90253000    -25.83917600     -6.00356800
H          -4.38219600    -26.42413200     -4.30043300
