17
b3lypvdz=-272.520407187136 
C          -0.15612600    -22.20425100     -1.10785500
C           0.33313100    -23.45426800     -1.15779400
C          -0.28747900    -24.64343500     -1.76844500
C          -1.44651200    -24.69987200     -2.44797100
C          -2.03322200    -25.95300800     -3.04692900
C          -2.24225800    -25.84890300     -4.53992300
C          -3.41256400    -25.99086100     -5.16775000
H           0.40794600    -21.40148500     -0.62718100
H          -1.12709400    -21.93549400     -1.53510200
H           1.30996900    -23.63597600     -0.69449700
H           0.27488100    -25.57765600     -1.64472600
H          -2.02794400    -23.78334500     -2.61289000
H          -3.00595300    -26.17653600     -2.56857800
H          -1.36262500    -26.80398600     -2.82421900
H          -1.34126700    -25.62684400     -5.12762900
H          -3.49140800    -25.90432200     -6.25529800
H          -4.33577500    -26.20455800     -4.61771400
