13
b3lypvdz=-704.334567301023 
C           0.74137900     -1.39530500     -2.00064700
C           0.26842800     -0.40675800     -1.24497600
S           2.12301000     -2.38740200     -1.40720100
O           3.09156500     -2.50706900     -2.53073300
O           2.52150200     -1.86870500     -0.07064000
C           1.37077200     -4.00376900     -1.14784800
C           1.71894900     -5.02415800     -1.92852600
H           0.40499100     -1.65393500     -3.00748700
H          -0.53739600      0.24044400     -1.60281600
H           0.69209600     -0.22030300     -0.25424700
H           0.68781700     -4.04809700     -0.29556100
H           1.31288500     -6.02579600     -1.76276700
H           2.43100200     -4.87344600     -2.74505200
