15
b3lypvdz=-308.422671280327 
C           0.89010400     -6.06158500     -1.56017200
C           0.41596700     -6.46689900     -0.38201500
O           0.19162600     -7.79761500     -0.11715400
C          -0.79937100     -8.13307000      0.76261500
C          -2.63892500     -8.58213700      3.18207200
C          -2.85101400     -7.79700100      2.11250500
C          -1.85101700     -7.37422600      1.12585600
H           1.13910800     -5.01097500     -1.71197800
H           1.05639500     -6.76801700     -2.37612400
H           0.22390900     -5.79491600      0.46250200
H          -0.65500300     -9.15279300      1.12648200
H          -1.64056700     -8.94531200      3.44401400
H          -3.46371300     -8.87861400      3.83466500
H          -3.86533500     -7.41523000      1.94195500
H          -2.01176400     -6.41010900      0.63407900
