16
b3lypvdz=-234.452173781817 
C          -4.23987600      5.81664400     -0.29451100
C          -3.90755200      7.08851600     -0.05372600
C          -4.91906900      5.26991700     -1.52910400
C          -5.31654600      6.33743200     -2.56420500
C          -4.12168600      4.16382100     -2.19776200
C          -2.83379500      3.87238500     -1.99298600
H          -4.01739500      5.06128800      0.46980000
H          -3.43015100      7.37797100      0.88614700
H          -4.09842200      7.88958500     -0.77293200
H          -5.85969500      4.79500300     -1.17889200
H          -5.99096500      7.08964400     -2.12403900
H          -5.83718100      5.87351600     -3.41735700
H          -4.42723700      6.85426500     -2.95934900
H          -4.68784300      3.57818200     -2.93408600
H          -2.34323600      3.06287300     -2.53990500
H          -2.22345300      4.43185600     -1.27829300
