13
b3lypvdz=-195.162800471872 
C          -1.40749400     -9.24410200      2.69415700
C          -2.43606200     -8.59481200      3.24791000
C          -3.37638500     -9.11842200      4.31229300
C          -3.77080600    -10.57988800      4.29871900
C          -3.79384700    -11.40589500      3.24862900
H          -0.75790300     -8.75240800      1.96503900
H          -1.16887300    -10.28042500      2.94595800
H          -2.60916300     -7.55210600      2.95690500
H          -2.94635900     -8.88383700      5.30582400
H          -4.30639200     -8.51835600      4.28357500
H          -4.12386800    -10.95690200      5.26617200
H          -4.15161800    -12.43363300      3.35031200
H          -3.46343000    -11.09301300      2.25550700
