16
b3lypvdz=-234.460993899178 
C          -3.57050000     -9.03795900      4.05724200
C          -4.78310200     -8.22665100      4.54595200
C          -3.77132400    -10.52123300      4.18121300
C          -4.18085800    -13.60443400      4.30105600
C          -3.92707100    -12.85058300      3.21852500
C          -3.73011000    -11.39412100      3.15835300
H          -3.34354300     -8.78013500      3.00841400
H          -2.68683200     -8.73944800      4.65382300
H          -4.58811000     -7.14348400      4.47605500
H          -5.01814400     -8.45726300      5.59914600
H          -5.67957800     -8.45476600      3.94635400
H          -3.97860800    -10.89109000      5.19440100
H          -4.26993900    -13.17902000      5.30476500
H          -4.31337700    -14.68523400      4.21243900
H          -3.85377800    -13.36009200      2.25044100
H          -3.52612600    -10.99398700      2.15742100
