11
b3lypvdz=-231.071321633839 
O          -2.35840500      0.51157900     -3.57271000
C          -1.00192000      0.37580500     -3.45597000
C          -0.32187000     -0.53210500     -4.15755800
C          -4.29657400      1.66130700     -2.86748800
C          -2.97477800      1.48330700     -2.83345500
H          -0.52324100      1.06185000     -2.74644800
H           0.75759100     -0.60805700     -4.02728400
H          -0.82585800     -1.20306000     -4.85543500
H          -4.74569400      2.45083800     -2.26535500
H          -4.93705800      1.03246400     -3.48853300
H          -2.30709400      2.09947200     -2.21896400
