17
b3lypvdz=-272.51858840328 
C          -2.66509900     -8.59068100      2.93681900
C          -3.36994600     -7.62546600      2.34014200
C          -3.04610100     -9.27161600      4.22045700
C          -3.27298200    -10.77569700      4.13566600
C          -3.37976900    -11.46155600      5.44225800
C          -4.16192200    -12.51436900      5.71930700
C          -3.36872100    -11.43528100      2.96817200
H          -1.72760800     -8.92866300      2.47753500
H          -3.02930300     -7.16115000      1.41114600
H          -4.31393300     -7.26330300      2.76025000
H          -2.24781900     -9.10185900      4.97034300
H          -3.94995100     -8.79535300      4.64355300
H          -2.77787400    -11.03206700      6.25377600
H          -4.82519200    -12.95265900      4.96842200
H          -4.16635900    -12.96644300      6.71428200
H          -3.49008300    -12.52038600      2.94110400
H          -3.32753700    -10.91135200      2.01116700
