19
b3lypvdz=-273.732183057146 
C          -1.39027800    -24.68405300     -2.35839600
C          -1.54563400    -23.41136900     -2.73175600
C          -2.01764800    -25.92703700     -2.98474000
C          -3.36498200    -26.18749100     -2.26316200
C          -1.08046800    -27.13646100     -2.73692700
C          -2.27683800    -25.83750600     -4.48668100
C          -1.54489900    -25.20111200     -5.40474400
H          -0.80549700    -24.89631200     -1.45329000
H          -1.09502300    -22.59797200     -2.15654200
H          -2.12005600    -23.13016000     -3.61772900
H          -3.22040100    -26.26205300     -1.17283700
H          -3.81120200    -27.13344700     -2.61591200
H          -4.07402600    -25.36744600     -2.45795000
H          -0.93683800    -27.29741000     -1.65476700
H          -0.09718900    -26.96888800     -3.20297100
H          -1.50689500    -28.05710500     -3.16695800
H          -3.13469500    -26.43387800     -4.82425200
H          -1.79684200    -25.26365500     -6.46736700
H          -0.67269100    -24.59814400     -5.13851800
