15
b3lypvdz=-308.423305368906 
O          -2.27627900      0.57043500     -3.56503200
C          -1.14212900      0.08212400     -2.94075100
C          -0.33059100     -0.66903100     -3.91495000
C           0.74977500     -1.41611900     -3.65381100
C          -0.86742100      0.27073500     -1.63791300
C          -4.24754700      1.81214100     -3.18107200
C          -2.93590100      1.63740100     -3.01242800
H          -0.69618800     -0.57806900     -4.94242200
H           1.13758000     -1.55211600     -2.64104800
H           1.28451900     -1.92212600     -4.45980600
H           0.06142700     -0.11579200     -1.22059000
H          -1.55275500      0.78855400     -0.96814400
H          -4.72494100      2.71381100     -2.79729400
H          -4.85266100      1.07517000     -3.71253300
H          -2.29418800      2.34538200     -2.47670800
