13
b3lypvdz=-704.334566174691 
C          -2.74885300    -18.04101900      4.91350200
C          -1.56457900    -17.77483600      4.36701000
S          -0.24418900    -18.99700300      4.46494400
O          -0.76242000    -20.17482200      5.21211100
O           0.98968800    -18.27564300      4.87971000
C          -0.03978300    -19.50532200      2.74839900
C           1.08395100    -19.20132200      2.10268700
H          -3.55113400    -17.29765900      4.91145300
H          -2.93058900    -19.00973400      5.38694000
H          -1.27011600    -16.83741800      3.88879700
H          -0.86959500    -20.09925300      2.35689200
H           1.25494600    -19.54060600      1.07749600
H           1.86267300    -18.61586300      2.59975900
