15
b3lypvdz=-308.421049408871 
O          -4.13381300    -14.84947500      3.67628800
C          -3.30001200    -15.88546000      4.07719800
C          -3.87047000    -17.01603800      4.52122800
C          -0.88250500    -16.18005100      4.63923500
C          -1.85592200    -15.67468400      3.86921200
C          -3.78091700    -13.56868200      4.02259000
C          -4.38277900    -12.50598100      3.48517300
H          -3.26439600    -17.89943200      4.71766600
H          -4.95209000    -17.07097500      4.65105500
H          -1.10935100    -16.76354000      5.53608000
H           0.17060600    -16.01963300      4.39586900
H          -1.59794500    -15.04933700      3.00605900
H          -2.99997100    -13.48732100      4.78647600
H          -4.10371900    -11.50579300      3.81589700
H          -5.16261400    -12.61949700      2.72897400
