15
b3lypvdz=-308.422672656461 
C           0.33597900    -19.94014100      3.22480900
C          -0.69552000    -20.59383600      2.66338200
C          -0.77492500    -21.07545500      1.28017400
C          -0.19189700    -20.45327800      0.23815500
O          -0.19065600    -20.85868600     -1.06587900
C          -0.44876200    -22.17842000     -1.35122100
C          -1.01666200    -22.54416500     -2.50034600
H           0.28040700    -19.58194900      4.25549600
H           1.26589700    -19.74928000      2.68070700
H          -1.57525700    -20.80731000      3.28348800
H          -1.38804400    -21.96399500      1.10035700
H           0.32728900    -19.49726800      0.33501500
H          -0.10204100    -22.88736300     -0.59034400
H          -1.13537400    -23.60292600     -2.73299000
H          -1.35473400    -21.80173000     -3.22610400
