16
b3lypvdz=-234.461018872292 
C          -0.65269200     -7.84086900      0.85371500
C          -0.56342500     -8.98868400      1.54600900
C          -1.39258000     -9.42162700      2.67916500
C          -2.34523700     -8.71136600      3.31048900
C          -3.16643800     -9.20536800      4.46633800
C          -3.00410300     -8.34136900      5.72807000
H           0.02951600     -7.63186200      0.02669500
H          -1.40042400     -7.07549800      1.08002700
H           0.20917300     -9.70646400      1.24616900
H          -1.19553500    -10.44030700      3.03491400
H          -2.55346700     -7.68306500      2.98694400
H          -4.23570500     -9.20531200      4.17709100
H          -2.90136900    -10.25335400      4.68809800
H          -3.28287600     -7.29210100      5.53177300
H          -1.96067400     -8.35000800      6.08319400
H          -3.64796400     -8.71074600      6.54290900
