11
b3lypvdz=-231.070775788862 
O          -2.38715900      0.62084700     -3.63813000
C          -1.12441400      0.23737200     -3.25520400
C          -0.38391100     -0.57467300     -4.00970100
C          -2.85367100      1.84028100     -3.22722600
C          -2.14711800      2.87425500     -2.75862900
H          -0.80999100      0.60215200     -2.27099200
H           0.58165700     -0.92330700     -3.64275900
H          -0.73283300     -0.91121600     -4.98789400
H          -3.93859400      1.87672900     -3.35373700
H          -2.67752100      3.78053300     -2.46383200
H          -1.05994600      2.86542600     -2.66779700
