13
b3lypvdz=-195.167868940332 
C          -0.18658500    -24.80789700     -1.64610900
C          -1.21528800    -24.62499200     -2.47826100
C          -2.11778000    -25.71280100     -2.99114900
C          -2.12626900    -25.89793400     -4.49229500
C          -1.27368700    -25.34796800     -5.36152900
H           0.42513200    -23.97138700     -1.29753100
H           0.07994900    -25.80418400     -1.27738500
H          -1.44544700    -23.61049800     -2.82854900
H          -3.15729200    -25.50129700     -2.66954900
H          -1.85796000    -26.67547000     -2.51105600
H          -2.91706900    -26.55936000     -4.86905500
H          -1.35241100    -25.54745500     -6.43356400
H          -0.46249200    -24.69045600     -5.03476800
