17
b3lypvdz=-272.514309368228 
C          -0.26442100    -22.12826800     -1.05497900
C          -1.35616200    -24.68539600     -2.42671200
C          -1.50870700    -23.41566800     -2.84437800
C          -0.98775900    -22.20795200     -2.18341600
C          -1.95167400    -25.92616100     -3.05019700
C          -2.30745400    -25.91706800     -4.52312100
C          -1.61121500    -25.34418600     -5.50947400
H           0.06437100    -21.16275000     -0.66541800
H           0.02776500    -23.01353200     -0.48281700
H          -0.79577500    -24.86507900     -1.50164900
H          -2.07457400    -23.23914800     -3.76328600
H          -1.23596900    -21.27010300     -2.69373600
H          -2.85845700    -26.19576400     -2.47390900
H          -1.26236900    -26.77284200     -2.86279400
H          -3.20406200    -26.49087800     -4.78579900
H          -1.92792200    -25.43866700     -6.55170700
H          -0.70191600    -24.76703800     -5.32051000
