15
b3lypvdz=-196.394112196376 
C          -2.57862700     -8.59256200      3.10161200
C          -2.92244400     -7.77615100      2.10052300
C          -3.41520600     -8.97771600      4.30180600
C          -2.68323800     -8.58649300      5.60203200
C          -4.84332700     -8.42591000      4.27445100
H          -1.57306100     -9.03569100      3.08816900
H          -2.22341400     -7.55795000      1.28811100
H          -3.90485500     -7.29937000      2.04292400
H          -3.47949400    -10.08557700      4.29737300
H          -2.58996300     -7.48936200      5.67948400
H          -1.66700100     -9.01256500      5.63901800
H          -3.23126700     -8.94924100      6.48811100
H          -4.84783000     -7.32246100      4.31766600
H          -5.41501200     -8.79431000      5.14251100
H          -5.38056100     -8.73034200      3.36170900
