15
b3lypvdz=-308.420542935289 
C           0.89595900     -6.42353900     -1.61152900
C           0.64101200     -6.49933600     -0.29772300
C           0.79259300     -5.41608800      0.69187100
C           0.73393600     -4.10301500      0.43139400
O           0.32213200     -7.74834700      0.23438300
C          -0.88439300     -7.91671500      0.86385100
C          -1.93850700     -7.09494100      0.85957400
H           1.28395000     -5.50378200     -2.04952900
H           0.74814300     -7.29521100     -2.25014600
H           0.97808700     -5.75917300      1.71533200
H           0.50659600     -3.72315400     -0.56868600
H           0.90799200     -3.36530200      1.21794300
H          -0.88885200     -8.87826400      1.38393000
H          -2.83275800     -7.38884500      1.41103200
H          -1.94639000     -6.14289000      0.32790300
