15
b3lypvdz=-308.423272532413 
C           1.02558700     -6.31917500     -1.75081900
C           0.37952100     -6.50172700     -0.59855200
O           0.11322700     -7.75474600     -0.11399900
C          -0.54360200     -7.85666800      1.07959900
C          -0.72673100     -9.04862600      1.67053500
C          -1.45838700     -9.24532300      2.92440500
C          -2.47985400     -8.50389000      3.38559800
H           1.21733000     -5.30729400     -2.10662100
H           1.37012600     -7.16595100     -2.34731600
H           0.02249600     -5.67481900      0.02639700
H          -0.89389900     -6.91229000      1.51083000
H          -0.27437200     -9.92601600      1.19781400
H          -1.12601000    -10.09995800      3.52667200
H          -2.90135600     -7.67603000      2.80742100
H          -2.93197500     -8.71209000      4.35783800
