16
b3lypvdz=-234.458418868411 
C          -2.09709900    -26.30478000     -3.11615500
C          -3.14257400    -25.73800900     -2.14269100
C          -2.27003400    -25.80631600     -4.53974200
C          -3.43697400    -26.35488500     -5.27112700
C          -3.80173300    -26.11103600     -6.53889100
C          -1.41581800    -24.91225400     -5.06833400
H          -1.08647900    -26.04465700     -2.76026800
H          -2.15990800    -27.40855700     -3.10976000
H          -2.97867100    -26.12557900     -1.12346800
H          -4.16999900    -26.00942500     -2.44164900
H          -3.08736200    -24.63747600     -2.10466100
H          -4.05716400    -27.05095000     -4.69384200
H          -3.24145000    -25.43733000     -7.19375200
H          -4.68653800    -26.58799700     -6.96716800
H          -1.53197500    -24.51848500     -6.08058100
H          -0.56212200    -24.54346300     -4.49351000
