17
b3lypvdz=-272.518440760741 
C          -0.30531200     -8.98235300      1.98001700
C          -1.20092400     -9.19488300      2.95543800
C          -2.56513900     -8.62808900      3.06985900
C          -3.11988800     -7.81079600      2.15788100
C          -3.33541200     -9.03935500      4.31751100
C          -3.67782100    -10.50908000      4.34089200
C          -3.31839800    -11.37135300      5.29665100
H          -0.51354000     -8.33818000      1.12118900
H           0.67870600     -9.45509000      2.01127800
H          -0.91509300     -9.86047200      3.77770600
H          -2.59151700     -7.50825500      1.25107100
H          -4.12844600     -7.41500300      2.29613700
H          -2.74554500     -8.79139100      5.21867800
H          -4.26542300     -8.44764800      4.36569900
H          -4.26865500    -10.86740300      3.48805800
H          -3.60974600    -12.42415000      5.25645300
H          -2.72654600    -11.05209900      6.16108200
