17
b3lypvdz=-272.517209733549 
C          -3.45957600      5.18259200      2.12935400
C          -4.02480900      4.86918600      0.95408700
C          -4.31839400      5.77736400     -0.18089600
C          -3.99122200      7.08157900     -0.20207100
C          -5.03916600      5.13935700     -1.35248700
C          -4.21164600      4.19428500     -2.19660600
C          -2.88516800      4.03975200     -2.14971600
H          -3.13688400      6.19838700      2.37364000
H          -3.30007900      4.42043000      2.89558900
H          -4.32013700      3.82688400      0.78914100
H          -3.47348200      7.56433400      0.63023100
H          -4.23687000      7.70941700     -1.06196300
H          -5.91860100      4.58197500     -0.97516000
H          -5.45365700      5.92549300     -2.00874400
H          -4.78939600      3.60345300     -2.91917100
H          -2.37647800      3.33707100     -2.81503100
H          -2.26253700      4.60683900     -1.45219900
