16
b3lypvdz=-234.460976626331 
C          -2.04539800    -26.00324900     -2.99185900
C          -1.08824700    -27.16215900     -2.66446000
C          -2.26232700    -25.81838700     -4.46557800
C          -3.44488400    -25.94005700     -5.09489100
C          -3.71190700    -25.77551300     -6.53224700
C          -2.84339000    -25.43341600     -7.49789400
H          -1.62358700    -25.07191100     -2.56656700
H          -3.01659700    -26.16311200     -2.49247600
H          -0.91697600    -27.24062700     -1.57869800
H          -0.10738800    -27.01978100     -3.14892500
H          -1.49583000    -28.12280100     -3.02017400
H          -1.36633900    -25.58008200     -5.05476500
H          -4.32053400    -26.19019200     -4.48310400
H          -4.75200600    -25.95863200     -6.82609000
H          -1.78924900    -25.22625800     -7.29125700
H          -3.16744100    -25.34282300     -8.53701300
