15
b3lypvdz=-308.422650350854 
C           0.36843600    -19.67323900      3.26256600
C           0.04161000    -20.66298300      0.34757100
C           0.73297700    -19.58640700      0.75906200
C           0.89540400    -19.14230600      2.14485600
O          -0.04664200    -20.97233300     -0.97825300
C          -0.73847500    -22.09595900     -1.34062200
C          -0.86929800    -22.45725000     -2.61792900
H           0.57939400    -19.23427900      4.23980500
H          -0.28305000    -20.55243000      3.25246200
H          -0.48506800    -21.34412000      1.02588700
H           1.21875000    -18.98978700     -0.01857500
H           1.53161200    -18.25740700      2.25970700
H          -1.16998800    -22.66704000     -0.51009300
H          -1.42533500    -23.36149300     -2.86380800
H          -0.42592700    -21.86666700     -3.42153600
