15
b3lypvdz=-308.41774422935 
C           0.47503300     -3.62235800     -1.42101400
C           0.80925000     -6.37714200     -0.11742800
C           0.33279000     -5.26678800      0.47316900
C           0.47361800     -3.92867900     -0.11300700
O           0.78208100     -7.66950500      0.33652400
C          -0.17664800     -8.18066000      1.17716400
C          -1.40332700     -7.72625300      1.44909100
H           0.62729100     -2.59414700     -1.75741200
H           0.31547500     -4.38053700     -2.19334000
H           1.37743200     -6.33357000     -1.05006700
H          -0.13583700     -5.33082300      1.45773000
H           0.57526500     -3.11170500      0.61216300
H           0.19626000     -9.11854700      1.59577000
H          -2.03536000     -8.32498300      2.10707500
H          -1.81702300     -6.80900200      1.03298200
