15
b3lypvdz=-196.395033341664 
C          -1.86792700    -26.09322100     -3.04157900
C          -3.20309900    -25.95034000     -2.28858000
C          -1.19423200    -27.43716900     -2.70629800
C          -2.07604700    -25.95915500     -4.53016100
C          -1.53667700    -25.01764800     -5.31016000
H          -1.19593400    -25.27833100     -2.71606000
H          -3.05112800    -26.03101200     -1.19882100
H          -3.91147800    -26.74325700     -2.58744900
H          -3.68036600    -24.97882300     -2.49708900
H          -1.04002900    -27.54052500     -1.61898900
H          -0.21479800    -27.52592800     -3.20214200
H          -1.81840900    -28.28608300     -3.03655200
H          -2.73322900    -26.71626700     -4.98212200
H          -1.73416900    -24.97948900     -6.38499500
H          -0.87857900    -24.24425000     -4.89880100
