15
b3lypvdz=-308.423240909049 
C          -2.71209500      7.30941600      7.03726700
C          -2.44110100      7.34338000      5.72631200
C          -3.39493600      7.14461300      4.61997500
C          -4.69464300      6.81565100      4.72347400
O          -2.75383300      7.37112200      3.41450600
C          -3.28553600      6.83651100      2.26896600
C          -3.13315100      7.42968500      1.08415400
H          -3.71872700      7.12934400      7.42288000
H          -1.92095500      7.46439500      7.77350700
H          -1.42020600      7.53981700      5.38472100
H          -5.12719200      6.62615400      5.70503300
H          -5.34708100      6.74675000      3.85427200
H          -3.78730600      5.87202700      2.40344500
H          -3.49555300      6.93556900      0.18268700
H          -2.63668600      8.39756500      0.99660100
