11
b3lypvdz=-231.070781151438 
C          -3.22805000      7.10998200      4.57372800
C          -4.49661300      6.78739300      4.84659400
O          -2.66127900      7.31848000      3.34422800
C          -3.31032700      6.83409000      2.23356800
C          -3.20917300      7.43819900      1.04949800
H          -2.47844800      7.26782400      5.35275700
H          -4.78799900      6.64657100      5.88808200
H          -5.26139100      6.67160700      4.07736600
H          -3.85702300      5.89821800      2.39313300
H          -3.66865800      6.98518300      0.17079400
H          -2.66043900      8.37515400      0.93875200
