15
b3lypvdz=-196.395046431081 
C          -1.55407800     -9.42114100      2.61130200
C          -2.31959800     -8.59159000      3.32611600
C          -3.24006000     -8.99477700      4.45269800
C          -2.79626400     -8.34888600      5.77856900
C          -4.69759400     -8.62185100      4.12514700
H          -0.91036900     -9.05683500      1.80580400
H          -1.54350900    -10.49928000      2.80636800
H          -2.30054500     -7.51583900      3.09745100
H          -3.18041300    -10.09303800      4.56627000
H          -2.82097400     -7.24680300      5.70847700
H          -1.76940100     -8.64737100      6.04350400
H          -3.46470100     -8.64641300      6.60429600
H          -4.80548000     -7.52999700      3.99738100
H          -5.37693200     -8.93142200      4.93751900
H          -5.03578000     -9.10425800      3.19409800
