17
b3lypvdz=-272.514656723808 
C          -3.87330200      5.02499800      0.85467600
C          -4.58731900      5.70592500     -0.04615200
C          -5.01417300      5.25596600     -1.42773300
C          -4.29214300      4.09487100     -2.07356800
C          -2.75470300      1.74914000     -3.40340800
C          -2.23649500      2.82148500     -2.78051100
C          -2.95923200      3.91280000     -2.11039600
H          -3.66708500      5.45294900      1.83941800
H          -3.47490600      4.02825500      0.64882000
H          -4.96303300      6.69949100      0.23176700
H          -6.09563800      5.02563500     -1.37824000
H          -4.95901200      6.12960600     -2.10906000
H          -4.93679600      3.38193100     -2.60151100
H          -3.83202600      1.56985300     -3.46997900
H          -2.10493600      1.00410200     -3.86852700
H          -1.14390600      2.91316200     -2.75065700
H          -2.32119600      4.64473300     -1.60253800
