17
b3lypvdz=-272.517623921208 
C          -0.09779400    -25.13904900     -1.66227600
C          -1.07022700    -24.65681600     -2.44154100
C          -2.17236200    -25.47423700     -3.05308600
C          -2.24744000    -25.46835800     -4.57563100
C          -3.48372200    -26.07933200     -5.12097100
C          -3.83466600    -26.21885600     -6.40775400
C          -1.26222200    -24.96577500     -5.33955300
H           0.66744300    -24.48857900     -1.23011300
H          -0.03408600    -26.20571700     -1.42166300
H          -1.09560000    -23.58142200     -2.66076000
H          -3.14384300    -25.10371900     -2.66974200
H          -2.10167000    -26.52236300     -2.70593200
H          -4.17901900    -26.45594200     -4.36073000
H          -3.20278100    -25.86975100     -7.22935400
H          -4.78073400    -26.69067500     -6.68242200
H          -1.32261500    -24.97345500     -6.43035000
H          -0.35926000    -24.54335500     -4.89612300
