15
b3lypvdz=-308.419613990928 
O          -1.86139400      1.21223900     -3.84498100
C          -1.32716900      0.15999900     -3.15051500
C          -1.22361900      0.01359100     -1.82542500
C          -4.94460200      2.54485900     -2.38736500
C          -3.91983400      1.74593400     -2.71639700
C          -2.57460500      2.18214400     -3.13444600
C          -2.01960000      3.38943600     -2.96778600
H          -0.95756400     -0.59093000     -3.85343500
H          -0.76364200     -0.89713500     -1.43942300
H          -1.57224600      0.76169100     -1.11198000
H          -4.86478400      3.63544900     -2.41060800
H          -5.90672900      2.12449600     -2.08749300
H          -4.06573900      0.66148300     -2.70770700
H          -2.56009100      4.19403600     -2.46881400
H          -1.01738100      3.58981000     -3.34682300
