17
b3lypvdz=-309.658701797612 
O          -2.73564400      6.99111000      3.67420800
C          -3.38157400      6.46222100      2.60025400
C          -3.04610300      5.33762700      1.93985100
C          -3.73122000      4.80467800      0.75867100
C          -4.42390200      5.49727200     -0.16522200
C          -5.15307200      4.88837100     -1.33134300
C          -6.65245000      5.22971200     -1.34769000
H          -1.95451600      6.44677000      3.86403700
H          -4.25037200      7.07081100      2.33478900
H          -2.20379800      4.74504300      2.32260700
H          -3.64486600      3.71838500      0.62187200
H          -4.48078800      6.59198700     -0.08858800
H          -4.70156000      5.25036900     -2.27582600
H          -5.01917200      3.79219800     -1.31925700
H          -6.81203300      6.32156900     -1.37503600
H          -7.15928400      4.83986800     -0.44930100
H          -7.14834500      4.79920900     -2.23372700
