16
b3lypvdz=-234.452931178065 
C          -1.47702100     -9.35156900      2.77512800
C          -2.41659600     -8.61488200      3.37476900
C          -3.44082600     -9.09552100      4.38650100
C          -4.82614200     -8.49307700      4.06647900
C          -3.52622100    -10.59925000      4.47668800
C          -3.22500000    -11.32870700      5.55473000
H          -0.78050800     -8.90381000      2.06128700
H          -1.36124200    -10.41909600      2.98281900
H          -2.48188900     -7.54409800      3.13964300
H          -3.13109400     -8.70672200      5.37627700
H          -4.77556200     -7.39215100      4.02185500
H          -5.56458500     -8.77326600      4.83403200
H          -5.19437500     -8.85145700      3.09020600
H          -3.88104900    -11.10397300      3.56798900
H          -3.32806700    -12.41739500      5.55760700
H          -2.86632200    -10.86322700      6.47879100
