9
b3lypvdz=-117.824278399712 
C          -2.33794400    -25.74617400     -4.48455200
C          -3.53138300    -25.96074900     -5.04722300
C          -2.02594700    -25.91507700     -3.02370100
H          -1.50504000    -25.41907700     -5.12160500
H          -3.68830200    -25.81463100     -6.12001700
H          -4.39314300    -26.28769000     -4.45534700
H          -1.66532200    -24.96650800     -2.58559200
H          -2.91021900    -26.24217200     -2.45309000
H          -1.22430100    -26.66182200     -2.87587200
