17
b3lypvdz=-272.51938200922 
C          -0.27914900    -22.13620900     -1.15258800
C          -1.37087800    -24.71573200     -2.48245300
C          -1.57007100    -23.44769800     -2.88544700
C          -1.06266600    -22.22857300     -2.23930400
C          -1.91168700    -25.95412900     -3.15325100
C          -2.48573700    -25.75475600     -4.52971100
C          -3.75053700    -26.00909100     -4.87699300
H           0.02991900    -21.16293200     -0.76577300
H           0.08278200    -23.01614500     -0.61354100
H          -0.78021700    -24.90232100     -1.57754100
H          -2.17810000    -23.28264700     -3.78087500
H          -1.37559100    -21.29528700     -2.72115500
H          -2.67212300    -26.41966700     -2.49641100
H          -1.09093300    -26.69717800     -3.21050400
H          -1.78661600    -25.37763400     -5.28691400
H          -4.10699900    -25.85807000     -5.89923800
H          -4.47899700    -26.38163200     -4.14910100
