19
b3lypvdz=-273.742512600971 
C          -3.48579700      4.68024500      0.42794200
C          -4.29371000      5.59005400     -0.14639500
C          -4.39352000      6.99457000      0.31576000
C          -3.74767800      7.56975600      1.34148800
C          -5.16534200      5.19687900     -1.33736400
C          -6.66742800      5.32741200     -1.02332800
C          -4.79483400      5.98112500     -2.61000400
H          -2.84481900      4.92068000      1.27950100
H          -3.44492400      3.65310600      0.05749800
H          -5.08160700      7.62574700     -0.25648200
H          -3.04355700      7.02326300      1.97490500
H          -3.91048700      8.62206500      1.58484600
H          -4.96410500      4.13028700     -1.53774900
H          -6.95264500      6.37016900     -0.80427800
H          -6.94757100      4.71280000     -0.15287900
H          -7.27326900      4.99585200     -1.88337900
H          -5.02670700      7.05540400     -2.51456700
H          -5.36086100      5.59958800     -3.47615300
H          -3.72074100      5.88619800     -2.83676300
