11
b3lypvdz=-231.070777323804 
C          -0.43094500    -21.36358700      1.43723600
C           0.14719400    -20.71352900      0.42188600
O           0.00140800    -20.94947800     -0.92015600
C          -0.51219000    -22.16030300     -1.31947100
C          -1.20413500    -22.28132500     -2.45301800
H          -0.19704900    -21.05068300      2.45530900
H          -1.13749500    -22.18252700      1.29552800
H           0.81882200    -19.86502500      0.57138200
H          -0.26285600    -23.00490200     -0.66852100
H          -1.53152800    -23.26783800     -2.78160300
H          -1.43862600    -21.41060200     -3.06827200
