13
b3lypvdz=-307.30505359826 
O           0.39479900    -21.14957400     -0.91457700
C          -0.13750400    -22.31516900     -1.39497900
C           0.43451400    -23.56827600     -1.13300700
C          -0.15629000    -24.72487000     -1.65222400
C          -1.31390500    -24.64028100     -2.43091700
C          -1.87938800    -23.38556800     -2.68802500
C          -1.29795900    -22.22421700     -2.17429000
H           1.18272500    -21.36247800     -0.39352800
H           1.34194700    -23.64604500     -0.52423800
H           0.29234700    -25.69984100     -1.44523100
H          -1.77276100    -25.54534800     -2.83538400
H          -2.78649000    -23.30924100     -3.29313500
H          -1.73403500    -21.24219200     -2.36916500
