13
b3lypvdz=-704.334567316707 
C          -5.39753500      9.31075400      8.76038100
C          -6.66592200      9.70976800      8.69956800
S          -5.00955000      7.55627300      8.62662900
O          -4.03175900      7.24100200      9.70314100
O          -6.28991700      6.81295000      8.47592100
C          -4.14930000      7.45416500      7.04696100
C          -2.85411000      7.14803800      7.02215900
H          -4.52826400      9.94751000      8.94292100
H          -6.93336500     10.76219700      8.82865000
H          -7.46377800      8.98094900      8.53285800
H          -4.79352500      7.60716700      6.17756200
H          -2.32028700      7.03006800      6.07494900
H          -2.30789000      6.99475900      7.95710100
