16
b3lypvdz=-234.45849266192 
C          -0.30800600     -8.98284200      1.96142300
C          -1.25769600     -9.20183600      2.88241100
C          -2.59987400     -8.57644800      2.98020200
C          -3.05896300     -7.67209300      2.09778400
C          -3.41296300     -9.04986800      4.17243500
C          -4.81197100     -8.46079700      4.33466100
H          -0.43906900     -8.27594700      1.13721900
H           0.64558100     -9.51381100      2.00504900
H          -1.03662300     -9.92920700      3.67385300
H          -2.45917800     -7.34478100      1.24544300
H          -4.04893200     -7.22510000      2.19276500
H          -2.81935500     -8.85081100      5.08654000
H          -3.47968800    -10.15390600      4.11936200
H          -4.78045400     -7.36561000      4.46009000
H          -5.30599300     -8.88388100      5.22387300
H          -5.44851700     -8.68036200      3.46129000
