15
b3lypvdz=-308.420529857139 
O          -4.23845100    -14.76167600      4.10210600
C          -3.13646300    -15.54696400      4.31945900
C          -1.85155600    -15.17859100      4.33050000
C          -3.21252500    -11.59147000      5.64470700
C          -3.73735800    -12.80586100      5.43058100
C          -4.09292500    -13.37474400      4.11931100
C          -4.40036400    -12.69320400      3.00675600
H          -3.45330800    -16.58194400      4.47293200
H          -1.09162300    -15.93908100      4.51476400
H          -1.52887400    -14.15062800      4.16189800
H          -2.95102300    -10.92032000      4.82176600
H          -3.02192800    -11.23280600      6.65864300
H          -3.94665400    -13.46493400      6.28000800
H          -4.43472600    -11.60350900      3.01294200
H          -4.65402300    -13.22476800      2.08922500
