19
b3lypvdz=-273.745467190633 
C          -2.06710200    -25.97904300     -2.96006700
C          -3.33432300    -26.15733700     -2.11836700
C          -1.07034900    -27.13315800     -2.72183400
C          -2.31109400    -25.80748500     -4.44125100
C          -3.48239900    -25.93196100     -5.09038200
C          -3.70898500    -25.78582900     -6.53993200
C          -2.80584700    -25.51061700     -7.49547900
H          -1.56250600    -25.05221500     -2.61594700
H          -3.07937000    -26.19711300     -1.04652500
H          -3.85687400    -27.09757700     -2.36794600
H          -4.04221200    -25.32621900     -2.26833100
H          -0.80063900    -27.20702600     -1.65504100
H          -0.13957600    -26.99220600     -3.29540200
H          -1.51271300    -28.09527700     -3.03284400
H          -1.40788700    -25.57563700     -5.02180000
H          -4.38121600    -26.16067100     -4.50903200
H          -4.75035600    -25.92465600     -6.85374200
H          -1.74484700    -25.35644500     -7.27576900
H          -3.10860600    -25.42522600     -8.54181100
