11
b3lypvdz=-231.065952577094 
C           0.52577200     -6.42954500     -0.24204700
C           0.34403100     -5.30897600      0.46246600
O           0.13479700     -7.71397600      0.04395300
C          -0.90997600     -8.04101500      0.87271000
C          -1.97302700     -7.31437200      1.22907700
H           1.10359900     -6.43744500     -1.17017800
H           0.79027900     -4.38722000      0.08587500
H          -0.20121600     -5.26600800      1.40435300
H          -0.78836500     -9.07948000      1.19212900
H          -2.73175700     -7.78727400      1.85511200
H          -2.13913600     -6.28749000      0.90684900
