11
b3lypvdz=-231.070773773842 
C           0.35894500    -20.80107300      0.31659300
C           1.03436800    -19.72091900      0.70975800
O          -0.02922900    -20.96715000     -0.98996900
C          -0.16880500    -22.24046200     -1.47782100
C           0.31541100    -23.37389000     -0.96070000
H           0.02432500    -21.58695500      1.00273300
H           1.26557100    -19.57508300      1.76511800
H           1.35507700    -18.96359100     -0.00838100
H          -0.74194000    -22.21196300     -2.40696000
H           0.10586000    -24.31478000     -1.47080500
H           0.92511600    -23.40843300     -0.05666700
