19
b3lypvdz=-273.742589936094 
C           0.31280100    -23.64760700     -0.88502100
C          -0.55573400    -24.58601300     -1.29384100
C          -1.41931500    -24.55685300     -2.49700800
C          -1.56945500    -23.46410300     -3.26721500
C          -2.14834900    -25.85108800     -2.85555000
C          -3.14220800    -26.28862600     -1.76142100
C          -1.16370300    -26.98716800     -3.19350300
H           0.48295100    -22.72026700     -1.43953900
H           0.89001300    -23.78242100      0.03269300
H          -0.63825200    -25.48841300     -0.68006000
H          -1.07454700    -22.51622700     -3.04327400
H          -2.20712900    -23.48601600     -4.15461300
H          -2.73804500    -25.64331400     -3.76497000
H          -2.63508300    -26.52389000     -0.81116200
H          -3.68518600    -27.19672700     -2.07394500
H          -3.88812600    -25.50291300     -1.55904700
H          -0.57088200    -27.28993400     -2.31358500
H          -0.46145900    -26.67901200     -3.98516700
H          -1.70689000    -27.87900900     -3.54836900
