9
b3lypvdz=-626.975837901215 
C           0.82753900     -1.44006400     -2.05208800
C           0.18455100     -0.55191200     -1.29770800
S           2.25842400     -2.29605900     -1.37724400
O           3.32551700     -2.29677700     -2.40595400
O           2.48515700     -1.82483700      0.01152700
H           0.60534500     -1.67753300     -3.09596500
H          -0.66021100      0.01761900     -1.69532200
H           0.49943100     -0.37229400     -0.26585600
H           1.75564600     -3.59174300     -1.29718800
