11
b3lypvdz=-231.071326239275 
C           0.93357400     -6.17055600     -1.65562900
C           0.16303100     -6.48130800     -0.61211900
O           0.36945800     -7.61559400      0.12503500
C          -0.47296900     -7.86771500      1.17215200
C          -0.35064000     -8.96180500      1.92592800
H           0.73401600     -5.25464100     -2.21117900
H           1.76133500     -6.81323000     -1.96082000
H          -0.67390100     -5.85386300     -0.28177100
H          -1.24609100     -7.10912900      1.34656200
H          -1.04061300     -9.11840500      2.75468600
H           0.42820200     -9.70095500      1.72985500
