15
b3lypvdz=-196.394080705176 
C          -0.11345400    -24.65196300     -1.72203600
C          -1.29039300    -24.71045000     -2.35266700
C          -1.98113200    -25.94329900     -2.89262600
C          -3.35249600    -26.12288200     -2.20881200
C          -1.14068700    -27.22108100     -2.80917700
H           0.28212100    -23.69997400     -1.35709200
H           0.50282100    -25.53864000     -1.54769600
H          -1.85137600    -23.77557400     -2.49340900
H          -2.18850300    -25.74193700     -3.96427000
H          -3.22271500    -26.33867500     -1.13364900
H          -3.91246800    -26.95832100     -2.66249400
H          -3.97177000    -25.21403400     -2.29633600
H          -0.94178800    -27.50230900     -1.76043300
H          -0.17087500    -27.10484900     -3.31847800
H          -1.67308600    -28.06341300     -3.28112500
