17
b3lypvdz=-309.654150813038 
O          -2.18061100      0.63150600     -3.84178600
C          -5.11996100      5.22632400     -1.39104600
C          -6.59154100      4.93101300     -1.09916400
C          -4.32302900      4.11054100     -2.01680500
C          -4.78522100      2.89216400     -2.35810500
C          -4.05230000      1.77703900     -2.96709200
C          -2.74251500      1.73901800     -3.26953100
H          -1.23819600      0.79528200     -3.97850400
H          -4.61404200      5.53784600     -0.45564200
H          -5.04993000      6.11716600     -2.04742200
H          -7.07829500      5.80395800     -0.63509200
H          -6.70288400      4.07728700     -0.40985000
H          -7.14806200      4.69029400     -2.02009500
H          -3.26807000      4.35323900     -2.20120400
H          -5.84172400      2.67487800     -2.17024900
H          -4.62842200      0.87530500     -3.19887700
H          -2.06929800      2.58223900     -3.07573600
