16
b3lypvdz=-234.447634761468 
C          -1.41766400     -9.27764000      2.61658600
C          -2.42701300     -8.59502500      3.16626100
C          -3.34165200     -9.05639200      4.28796900
C          -2.77400500     -8.58271100      5.64525000
C          -3.68226600    -10.53612400      4.33782600
C          -3.77944200    -11.38862700      3.31396200
H          -0.78019300     -8.82380400      1.85294700
H          -1.18796500    -10.30678600      2.90258900
H          -2.59420700     -7.56107500      2.84152100
H          -4.30390600     -8.52320600      4.14919800
H          -2.57654000     -7.49944100      5.63806600
H          -1.82269800     -9.09580900      5.86143200
H          -3.48180000     -8.79987500      6.46203200
H          -3.92986000    -10.89885000      5.34362500
H          -4.09376700    -12.42326100      3.47318700
H          -3.55602100    -11.09077500      2.28665000
