15
b3lypvdz=-308.420548128862 
O          -2.18977300      0.74158000     -3.74752400
C          -1.14869100      0.25121100     -3.00304800
C          -0.90401700      0.44207200     -1.70294600
C          -4.30023800      1.50523200     -3.06955500
C          -2.98987300      1.74894900     -3.21096100
C          -2.30380100      3.03368300     -2.98373400
C          -2.74039600      4.03509000     -2.20743500
H          -0.51337400     -0.37188000     -3.63802100
H          -0.02595200     -0.02919600     -1.25953500
H          -1.54541900      1.04919700     -1.06282300
H          -4.98917300      2.30007800     -2.78336300
H          -4.69922200      0.51079000     -3.27251300
H          -1.35819300      3.14390400     -3.52503800
H          -3.65893900      3.95453300     -1.61955800
H          -2.18404000      4.97235700     -2.13694600
