17
b3lypvdz=-272.518573579947 
C          -3.41318900      4.68419000      0.62189100
C          -3.95086000      5.59978300     -0.20272400
C          -3.93259200      7.04637200      0.10580900
C          -4.06421300      7.59342000      1.32272600
C          -4.62098800      5.23214500     -1.52059500
C          -4.39134700      3.82844700     -2.00581500
C          -5.34950300      2.92159700     -2.21699700
H          -2.90322900      4.98241800      1.54047000
H          -3.46543600      3.61586800      0.40124600
H          -3.83151400      7.71599400     -0.75870500
H          -4.22578300      6.98106500      2.21395000
H          -4.02279100      8.67682000      1.46206000
H          -5.70663700      5.42705300     -1.44000700
H          -4.25077100      5.94160600     -2.28712100
H          -3.34649800      3.55547100     -2.20186900
H          -5.11540300      1.92106300     -2.58969500
H          -6.40394500      3.14898700     -2.02712400
