17
b3lypvdz=-309.656009686688 
O           0.10922000     -7.76658600     -0.25042400
C          -0.56562000     -7.85938800      0.93573100
C          -0.87147200     -9.05014000      1.47775500
C          -1.63634400     -9.23838200      2.71137600
C          -2.60443500     -8.43989300      3.19821000
C          -3.33344700     -8.66208800      4.49475900
C          -4.84127600     -8.89421100      4.30431000
H           0.33993200     -6.84054200     -0.40327000
H          -0.84318700     -6.91397600      1.41588600
H          -0.49285900     -9.94449700      0.97150400
H          -1.37994500    -10.13973800      3.28468200
H          -2.92250000     -7.56978700      2.60759900
H          -3.19269000     -7.78086300      5.15004100
H          -2.88730900     -9.51979200      5.02757200
H          -5.31222400     -8.04634200      3.77784000
H          -5.35148800     -9.01182900      5.27438000
H          -5.02745600     -9.80064600      3.70494800
