14
b3lypvdz=-270.370089746541 
O           0.42162100    -20.96748600     -0.94454600
C          -0.06732200    -22.18071700     -1.34504000
C          -1.38151500    -24.76830200     -2.48739500
C          -1.80754900    -23.49575800     -2.59896600
C          -1.18023500    -22.26922100     -2.09454800
C          -2.10198100    -25.96305600     -3.04242100
H           1.21446500    -21.11278600     -0.41197500
H           0.50028700    -23.06053500     -1.01965100
H          -0.43972600    -24.98222600     -1.96409400
H          -2.74763600    -23.32874000     -3.13941800
H          -1.67071700    -21.32466400     -2.35108800
H          -2.36893100    -26.68163800     -2.24488400
H          -1.47107700    -26.51899700     -3.76145800
H          -3.03018300    -25.67057500     -3.55961600
