13
b3lypvdz=-704.334574748187 
C           0.83909700     -1.24627100     -3.51446400
C           0.79691000     -1.47901900     -2.20442000
S           2.13837000     -2.38882300     -1.41828600
O           3.13982800     -2.72594700     -2.46613700
O           2.50709700     -1.64631000     -0.18221200
C           1.34313800     -3.92851900     -0.92547700
C           1.18623700     -4.20350400      0.36755300
H           0.06296500     -0.65399000     -4.00760200
H           1.66438200     -1.63705100     -4.11652000
H           0.03254200     -1.11867300     -1.51138900
H           1.07786000     -4.58417800     -1.75859000
H           0.75219500     -5.15275500      0.69366500
H           1.50548100     -3.48276000      1.12578000
