15
b3lypvdz=-271.397000297491 
C          -2.03455000    -25.91070700     -3.02200000
C          -2.28012800    -25.73868900     -4.50574700
C          -3.54180900    -26.00097200     -5.06236400
C          -3.76261200    -25.87140100     -6.43743200
C          -2.72157600    -25.47408300     -7.28200100
C          -1.46054500    -25.20650500     -6.74026700
C          -1.24469400    -25.33700400     -5.36454500
H          -1.25645300    -25.21976700     -2.66035400
H          -2.94959200    -25.72305500     -2.43802700
H          -1.70001000    -26.93911300     -2.79603200
H          -4.36601000    -26.30906600     -4.41199100
H          -4.75341000    -26.07867400     -6.85092500
H          -2.89401100    -25.36704700     -8.35637800
H          -0.64138000    -24.88961900     -7.39160200
H          -0.25492000    -25.11839600     -4.95253500
