19
b3lypvdz=-273.7425556986 
C          -3.45462500     -9.14811700      4.40103600
C          -2.67827200     -8.50043500      5.55052700
C          -4.85106900     -8.50829200      4.25382100
C          -3.57304000    -10.66853300      4.48399400
C          -3.34046700    -11.35590300      5.61596000
C          -4.26639700    -12.61675800      3.00315200
C          -3.97112600    -11.32513700      3.21186400
H          -2.90042700     -8.93672000      3.46385700
H          -2.55122100     -7.42173300      5.36168100
H          -1.67772800     -8.94496000      5.66995000
H          -3.21409600     -8.60394400      6.51002200
H          -4.76841700     -7.41895600      4.09901100
H          -5.44885000     -8.68358600      5.16517200
H          -5.41154300     -8.92788700      3.40299000
H          -3.44242100    -12.44352500      5.65962100
H          -3.03985800    -10.86364300      6.54141100
H          -4.25934100    -13.36230200      3.80415100
H          -4.53213100    -12.97331700      2.00505800
H          -4.01787100    -10.65555200      2.34402100
