15
b3lypvdz=-308.421147319225 
C          -1.30866500    -20.62497400      2.31372600
C          -0.37743800    -21.35498600      1.68428700
C           0.58598600    -20.82704400      0.69965900
C           1.19211100    -19.63160800      0.77470400
O           0.96664100    -21.68059300     -0.32361300
C           0.01678000    -22.48517600     -0.90179500
C           0.35380400    -23.45119200     -1.75868300
H          -1.45124400    -19.56452000      2.08700600
H          -1.95578000    -21.06901600      3.07402700
H          -0.29321400    -22.42727600      1.89906800
H           1.02572300    -18.98188900      1.63278600
H           1.88946200    -19.31926900     -0.00401100
H          -1.02076000    -22.26121600     -0.63312300
H          -0.42598900    -24.05218900     -2.22623500
H           1.39788400    -23.64535100     -2.01210300
