17
b3lypvdz=-272.51781344206 
C          -1.24951400     -9.24586300      3.10512900
C          -2.30850400     -8.61877800      3.62577300
C          -3.64942800     -9.23870400      3.96149200
C          -3.67922100    -10.75523600      3.99591300
C          -3.05700400    -11.38551000      5.18231800
C          -3.45108800    -12.52817100      5.76225400
C          -4.22787300    -11.46918900      2.99736600
H          -0.32819600     -8.70212000      2.88066900
H          -1.26713700    -10.31537300      2.87741500
H          -2.24017700     -7.54210700      3.82795100
H          -3.97406400     -8.84379800      4.94258400
H          -4.39612000     -8.87006400      3.23473400
H          -2.22205600    -10.83016800      5.62650200
H          -4.31064700    -13.09466100      5.39186200
H          -2.93168400    -12.92488900      6.63805400
H          -4.20650200    -12.56192500      2.99617000
H          -4.70308500    -10.97744400      2.14451300
