17
b3lypvdz=-272.520380771905 
C          -2.51938400     -8.57337400      3.16221200
C          -2.85416300     -7.70689700      2.20239400
C          -3.42749400     -9.03169900      4.27913900
C          -3.64739300    -10.52359800      4.27951900
C          -3.36304400    -11.34118900      5.30883800
C          -3.56250200    -12.79975500      5.37171500
C          -4.06436900    -13.60392600      4.41952000
H          -1.51391000     -9.01432200      3.16052600
H          -2.14407600     -7.41759200      1.42259300
H          -3.84933800     -7.25009800      2.16461300
H          -2.99942100     -8.73107200      5.25384900
H          -4.39914500     -8.51092700      4.18207400
H          -4.06228300    -10.93751300      3.35154800
H          -2.93882200    -10.89037600      6.21493100
H          -3.25804200    -13.26177300      6.31825100
H          -4.39407500    -13.22777700      3.44645800
H          -4.16403900    -14.67851300      4.59112100
