15
b3lypvdz=-308.422958579994 
C          -0.40730500    -21.22641300      1.48619000
C           0.23756100    -20.68720800      0.44702000
O           0.08200600    -20.98882900     -0.88044800
C          -0.52679700    -22.17051100     -1.21580300
C          -1.31249200    -24.76938800     -2.67177000
C          -1.82354900    -23.53736200     -2.83200300
C          -1.24659900    -22.28149800     -2.34351400
H          -0.16568200    -20.88426600      2.49313800
H          -1.18527200    -21.98417100      1.37648200
H           0.98224300    -19.89551200      0.55870500
H          -0.35006600    -23.00217400     -0.52477800
H          -0.34658700    -24.93631400     -2.18658300
H          -1.84485000    -25.65012200     -3.03852300
H          -2.76526700    -23.43386900     -3.38500800
H          -1.43814300    -21.37086100     -2.92040500
