17
b3lypvdz=-272.517842385741 
C          -1.56960900    -24.67259700     -2.32112700
C          -1.88200200    -23.40932000     -2.62450400
C          -1.89683900    -25.90386400     -3.13972300
C          -2.36096700    -25.63952000     -4.55993000
C          -3.65574100    -25.74693900     -4.90533300
C          -1.29237900    -25.51596600     -6.83314300
C          -1.30608600    -25.24418800     -5.52007600
H          -1.03813800    -24.87521700     -1.38250700
H          -1.61311200    -22.58838300     -1.95484100
H          -2.41560400    -23.15127700     -3.54320600
H          -2.66729600    -26.48715100     -2.60258100
H          -0.99967600    -26.55132200     -3.16217400
H          -4.00324400    -25.50640000     -5.91260600
H          -4.40891700    -26.06965400     -4.18178300
H          -2.09092600    -26.08855000     -7.31412100
H          -0.46929700    -25.17910200     -7.46834200
H          -0.45086700    -24.71014900     -5.08840400
