15
b3lypvdz=-308.422964610418 
C           0.00907800    -19.53632700      3.02358400
C           0.17429800    -20.79542100      0.22216700
C           0.76075200    -19.65978300      0.63336600
C           0.87509100    -19.25090500      2.03619100
O          -0.00215700    -21.05468200     -1.11242600
C          -0.00781800    -22.35994700     -1.53244200
C           0.45411600    -23.43035700     -0.87857800
H           0.20288200    -19.21784600      4.05068600
H          -0.92262600    -20.07868100      2.83684400
H          -0.22734500    -21.55298000      0.90401500
H           1.20220400    -19.01231100     -0.13111100
H           1.75812000    -18.64688400      2.27846000
H          -0.44600200    -22.41891000     -2.53127600
H           0.36691200    -24.41082900     -1.34850600
H           0.93219500    -23.36793900      0.10022600
