17
b3lypvdz=-272.519632497843 
C          -0.84144800     -7.76201100      0.72253400
C          -2.53208200     -8.76502100      3.12532800
C          -2.83002500     -7.76374200      2.27831800
C          -2.04851800     -7.32253100      1.11405500
C          -3.36112300     -9.15262000      4.31471700
C          -3.90479700    -10.56397300      4.30220200
C          -3.88472600    -11.40926200      3.26733300
H          -0.36088500     -7.35924600     -0.17140300
H          -0.29164600     -8.53121600      1.27268200
H          -1.62274900     -9.35606400      2.96098500
H          -3.75623100     -7.20428400      2.45680300
H          -2.52632600     -6.53951200      0.51398200
H          -2.75724700     -9.03399600      5.23695500
H          -4.20436900     -8.44557700      4.43166500
H          -4.35902700    -10.88681200      5.24733300
H          -4.30880200    -12.41311600      3.34825500
H          -3.45269700    -11.12731800      2.30325600
