11
b3lypvdz=-231.065968147716 
O          -2.35293000      0.68260800     -3.66368600
C          -1.26061300      0.08812100     -3.08440900
C          -0.71286500      0.29321700     -1.88301000
C          -2.86117100      1.90450000     -3.29926200
C          -2.26608400      2.92220500     -2.67039000
H          -0.88527500     -0.68495400     -3.76063800
H           0.13046500     -0.33447800     -1.59009400
H          -1.07056200      1.03267300     -1.16809000
H          -3.88877200      1.97530200     -3.66566400
H          -2.83707700      3.84087400     -2.52565900
H          -1.23661500      2.89673300     -2.31689900
