15
b3lypvdz=-308.42324520017 
O          -2.28931100      0.57513500     -3.66965900
C          -1.00282100      0.23248800     -3.34786500
C          -0.34223400     -0.71281400     -4.01709000
C          -4.38806500      4.09905600     -2.02568500
C          -4.90169700      2.91373500     -2.39605700
C          -4.19901800      1.83338900     -3.09301900
C          -2.89011300      1.56896600     -2.94993700
H          -0.56858300      0.78619300     -2.50707300
H           0.67959400     -0.96122800     -3.73234500
H          -0.80726300     -1.24727300     -4.84767100
H          -4.98928200      4.82423300     -1.47197700
H          -3.36280800      4.38843500     -2.27424400
H          -5.95704300      2.71430700     -2.17223000
H          -4.78303300      1.17918200     -3.74835000
H          -2.23872400      2.11779400     -2.26009600
