19
b3lypvdz=-273.742527037926 
C          -4.97384000      5.29659200     -1.65515900
C          -6.18291300      4.95266000     -0.76458900
C          -5.41302600      6.07524500     -2.90927000
C          -4.14863300      4.05943500     -2.00479500
C          -4.82574100      3.00949600     -2.80216700
C          -4.30129300      1.86597500     -3.26899400
C          -2.87374200      3.95947500     -1.58626200
H          -4.31442500      5.96148500     -1.07053000
H          -6.69525000      5.87347200     -0.43886100
H          -5.87033100      4.40095500      0.13641800
H          -6.92546300      4.33515400     -1.29847500
H          -5.96375400      6.98747300     -2.62483000
H          -6.07985500      5.47518100     -3.55164300
H          -4.54443200      6.37762800     -3.51611100
H          -5.87817100      3.20361600     -3.03355700
H          -3.25899900      1.58232700     -3.09864800
H          -4.91084600      1.16642600     -3.84597100
H          -2.25084400      3.08872500     -1.80548300
H          -2.41004300      4.75997800     -1.00397200
