17
b3lypvdz=-272.5184437335 
C          -4.47686400      5.67810700     -0.20523200
C          -3.92493700      6.86581000      0.06143300
C          -4.99163300      5.23830600     -1.55398200
C          -4.31762800      3.97199500     -2.06592000
C          -5.01254000      2.82891000     -2.19932600
C          -2.05708400      3.17319000     -2.88546100
C          -2.87801700      4.11003100     -2.38826500
H          -4.57707600      4.93910000      0.60012900
H          -3.57794700      7.12327900      1.06528100
H          -3.80318000      7.62807000     -0.71563100
H          -6.07828100      5.05593700     -1.48813600
H          -4.84267100      6.05721600     -2.28076300
H          -4.55037500      1.90685700     -2.55883700
H          -6.07502900      2.78316600     -1.94927800
H          -2.39270700      2.15708000     -3.10971500
H          -1.00865900      3.40068400     -3.09079200
H          -2.46077300      5.10326100     -2.18790600
