17
b3lypvdz=-272.518571287671 
C          -4.13881600      5.91394300     -0.23863500
C          -3.96744800      7.22333600     -0.44213700
C          -4.89895600      4.98927000     -1.14746500
C          -4.10158500      3.83392300     -1.73995500
C          -4.91539600      2.77072400     -2.36922000
C          -4.58410100      2.06586700     -3.46043700
C          -2.75915300      3.77817900     -1.69499600
H          -3.70714000      5.45276300      0.65884200
H          -3.41799200      7.84405100      0.27078900
H          -4.37508900      7.72349100     -1.32697300
H          -5.74624600      4.55050100     -0.58419300
H          -5.36107900      5.56805300     -1.96861800
H          -5.89044900      2.57855500     -1.90210100
H          -3.65309100      2.24909600     -4.00433000
H          -5.24378100      1.28505900     -3.84762200
H          -2.21583600      2.91692900     -2.09030300
H          -2.16864100      4.58746100     -1.26044600
