15
b3lypvdz=-308.423569440417 
O          -4.07536400    -14.83026000      3.94662000
C          -3.04892300    -15.66617400      4.34240700
C          -3.58429800    -17.00020100      4.67012000
C          -2.90271600    -18.15142700      4.60769900
C          -1.75813300    -15.29379800      4.41248400
C          -3.88605900    -13.47210800      4.02624400
C          -4.47977900    -12.63327500      3.17715200
H          -4.63825900    -17.00502400      4.96653700
H          -1.86470200    -18.19253500      4.26705500
H          -3.37267900    -19.09493400      4.89446000
H          -1.01284500    -15.99204500      4.79217800
H          -1.41972700    -14.31083000      4.08533300
H          -3.26120300    -13.14452400      4.86570100
H          -4.37891900    -11.55676300      3.32159700
H          -5.08099300    -13.00310200      2.34391300
