6
b3lypvdz=-78.53300359729 
C          -5.76653400     11.88506200      9.42331700
C          -4.63836600     11.32023800      9.85858300
H          -5.97005800     12.94899800      9.58225600
H          -6.52900200     11.30367700      8.89461700
H          -4.43484200     10.25630200      9.69964400
H          -3.87589800     11.90162300     10.38728300
