12
b3lypvdz=-157.109180916319 
C          -3.35553200    -26.14456500     -2.19945000
C          -0.11692100    -24.68872500     -1.72887000
C          -1.28645100    -24.68237800     -2.37437000
C          -2.00493600    -25.89773000     -2.89634700
H          -3.21486000    -26.32046600     -1.11949700
H          -3.86847600    -27.02250200     -2.62640100
H          -4.02930600    -25.27643300     -2.31038200
H           0.34228700    -23.76562700     -1.36405300
H           0.42909200    -25.62154100     -1.54689600
H          -1.79640900    -23.72125200     -2.53466800
H          -1.35465100    -26.78365400     -2.78406500
H          -2.18703800    -25.77402700     -3.98160000
