13
b3lypvdz=-704.333287188315 
C          -1.41335200    -17.66849600      4.40106500
C          -1.14511300    -16.36901500      4.50746400
S          -0.07259000    -18.87147100      4.47712500
O          -0.51117100    -19.94901000      5.40221300
O           1.20218800    -18.12609200      4.67366800
C          -0.05095500    -19.58082700      2.81994600
C           0.99736500    -19.37737800      2.02506400
H          -2.41042300    -18.11220000      4.33551700
H          -1.94890500    -15.62764700      4.52169400
H          -0.11095800    -16.02488100      4.59532500
H          -0.91236500    -20.21472800      2.59296900
H           1.05464900    -19.84557000      1.03869200
H           1.82583100    -18.74498600      2.35575700
