12
b3lypvdz=-232.108638158654 
C          -2.30475900    -25.72879900     -4.52216500
C          -3.57256400    -25.96680000     -5.06378600
C          -3.77993100    -25.83821500     -6.44126900
C          -2.71979000    -25.47160500     -7.27722800
C          -1.45198300    -25.23357000     -6.73557100
C          -1.24461400    -25.36211200     -5.35810200
H          -2.14193300    -25.83107500     -3.44594200
H          -4.40097000    -26.25369700     -4.41095900
H          -4.77015300    -26.02543100     -6.86455100
H          -2.88257300    -25.36942700     -8.35346400
H          -0.62361300    -24.94667600     -7.38845000
H          -0.25441600    -25.17479300     -4.93481300
