16
b3lypvdz=-234.447665458594 
C          -1.41589800    -24.69791500     -2.38383000
C          -1.59902700    -23.41986800     -2.72661900
C          -1.99077500    -25.93225600     -3.05728500
C          -1.13377700    -27.17757900     -2.73554100
C          -2.22719900    -25.85552400     -4.55567400
C          -1.52051700    -25.16151100     -5.45320300
H          -0.83596100    -24.91638900     -1.47765400
H          -1.17688300    -22.61146000     -2.12413900
H          -2.17154000    -23.13121900     -3.61146600
H          -2.98114500    -26.10597100     -2.59009400
H          -1.05007300    -27.32462000     -1.64607500
H          -0.11960200    -27.06340300     -3.15209700
H          -1.57398400    -28.08831000     -3.17124800
H          -3.03215200    -26.50690200     -4.91917000
H          -1.74447700    -25.23098900     -6.52131200
H          -0.69948800    -24.50138200     -5.16159100
