19
b3lypvdz=-273.736506946605 
C          -4.30158300      5.85939600     -0.30459800
C          -3.86822300      7.10387200     -0.08441500
C          -5.01712100      5.32984700     -1.53390200
C          -6.38242100      4.75193200     -1.07742100
C          -5.26571200      6.42078100     -2.59727000
C          -4.22119300      4.20321400     -2.18466000
C          -2.94383700      3.88215400     -1.96167800
H          -4.15318100      5.10536300      0.47941500
H          -3.37972300      7.37081200      0.85635900
H          -3.98028100      7.90494000     -0.81957600
H          -7.00995800      5.54256900     -0.63544000
H          -6.24620600      3.95722900     -0.32603200
H          -6.92581400      4.31963500     -1.93441500
H          -5.90405700      7.22504800     -2.19632800
H          -5.77656900      5.99080000     -3.47372200
H          -4.31903800      6.86092200     -2.94546500
H          -4.79322800      3.62862300     -2.92597300
H          -2.46648900      3.05955100     -2.50055400
H          -2.32876600      4.42901100     -1.24192600
