13
b3lypvdz=-704.334566205552 
C          -1.37650200    -17.63400500      4.34218600
C          -0.93796100    -16.38363200      4.47037800
S          -0.21740600    -19.00521900      4.49495500
O          -0.84600700    -20.01483800      5.39049400
O           1.13175900    -18.43655400      4.76507400
C          -0.18262900    -19.68666800      2.82750700
C          -0.68068300    -20.90000600      2.60023900
H          -2.41687900    -17.93734000      4.19902000
H          -1.62897800    -15.53702400      4.43105900
H           0.12529300    -16.18585300      4.63212900
H           0.31375900    -19.04909900      2.09168500
H          -0.62616100    -21.35398100      1.60666100
H          -1.14150500    -21.46838300      3.41301300
