19
b3lypvdz=-273.746809544959 
C          -3.28180300      6.52167800      2.56746900
C          -3.05264400      5.40017500      1.86441200
C          -3.72234500      4.95862600      0.63147300
C          -4.58737700      5.66055900     -0.12250600
C          -5.25756000      5.15563900     -1.37438400
C          -6.78917300      5.14560800     -1.20455500
C          -4.85200700      6.00080800     -2.59628700
H          -2.71169700      6.74129500      3.47287700
H          -4.04160800      7.25263900      2.27537100
H          -2.28520400      4.71187300      2.23878100
H          -3.46848500      3.94331800      0.30336100
H          -4.84699400      6.68807300      0.16677500
H          -4.92307600      4.11610700     -1.54537200
H          -7.17218800      6.16278000     -1.00926800
H          -7.09348300      4.50300400     -0.36303200
H          -7.28321100      4.77452600     -2.11849200
H          -5.16270700      7.05291600     -2.46960700
H          -5.33243800      5.62061400     -3.51363600
H          -3.76089800      5.98826200     -2.74937900
