17
b3lypvdz=-309.656037176805 
O           0.39273900    -20.94488400     -0.91296700
C          -0.30682800    -22.09147100     -1.16663600
C          -1.33538700    -24.81374800     -2.23800200
C          -1.52044200    -23.58259000     -2.75165700
C          -0.81053900    -22.35527200     -2.38463700
C          -2.12421100    -26.03431100     -2.62749500
C          -1.25314900    -27.14782400     -3.23287700
H           0.56517700    -20.89001900      0.03612600
H          -0.43818300    -22.78100500     -0.32366600
H          -0.53810700    -24.97132900     -1.49835800
H          -2.27736100    -23.46713200     -3.53966300
H          -0.70308400    -21.58060300     -3.15230700
H          -2.63639100    -26.43858700     -1.73265600
H          -2.91872600    -25.74971600     -3.33936600
H          -0.46146000    -27.46144000     -2.53054400
H          -0.76011100    -26.80586800     -4.15772400
H          -1.85723600    -28.03790100     -3.47537000
