17
b3lypvdz=-272.519563798474 
C          -3.90359000      4.92627300      0.81988900
C          -4.62153700      5.65603500     -0.03887800
C          -4.98295300      5.26695900     -1.45539500
C          -4.24687900      4.08173500     -2.00887000
C          -4.83020200      2.94034800     -2.41696200
C          -4.16828400      1.75650600     -2.98410700
C          -2.85607900      1.57757700     -3.20716800
H          -3.69490100      5.28474500      1.83099800
H          -3.50580500      3.94482600      0.54807800
H          -5.00942900      6.63066900      0.28195300
H          -6.07421900      5.08919200     -1.51089300
H          -4.80230300      6.14749800     -2.10388500
H          -3.15666100      4.18415500     -2.07809800
H          -5.92119400      2.86668100     -2.32654600
H          -4.84700900      0.93738800     -3.24824200
H          -2.11319500      2.34511300     -2.97211200
H          -2.48146100      0.64570300     -3.63596200
