16
b3lypvdz=-234.452176464021 
C          -1.39163500     -9.46173800      2.65555700
C          -2.30067400     -8.68545600      3.25280900
C          -3.27947400     -9.10553300      4.33531500
C          -2.92454300     -8.41922900      5.66647800
C          -3.44364300    -10.60515900      4.42645200
C          -3.23930200    -11.37523800      5.49921600
H          -0.71525300     -9.05975500      1.89638200
H          -1.28502800    -10.52093300      2.90710000
H          -2.36010300     -7.62539000      2.97340700
H          -4.26649300     -8.70607500      4.02058400
H          -2.85784400     -7.32744200      5.53207300
H          -1.94867200     -8.76783700      6.04149000
H          -3.68756100     -8.62210400      6.43522100
H          -3.77702000    -11.07811600      3.49392600
H          -3.40724300    -12.45485700      5.45793300
H          -2.90541200    -10.96784000      6.45685700
