15
b3lypvdz=-308.422675854621 
O          -4.31235700    -14.82521700      3.94402000
C          -3.34912200    -15.66953900      4.44371800
C          -3.62898800    -16.93395700      4.75980200
C          -3.45253800    -10.51833600      4.41824800
C          -3.42253600    -11.45332700      5.38198900
C          -3.51412000    -12.90526000      5.19658900
C          -4.21228900    -13.48703300      4.20218600
H          -2.34622600    -15.23169000      4.50530700
H          -2.82869500    -17.60373700      5.07553500
H          -4.64790800    -17.32059600      4.69157500
H          -3.41954800     -9.45455500      4.66592200
H          -3.50166100    -10.78290200      3.35735600
H          -3.31041400    -11.12300900      6.42218500
H          -3.02453800    -13.53714300      5.94362700
H          -4.82386000    -12.91689900      3.49954200
