19
b3lypvdz=-273.742486856757 
C          -1.90241300    -26.05181800     -3.07280300
C          -3.10564400    -25.74779700     -2.16104300
C          -1.45621700    -27.51972300     -2.93065700
C          -2.17353700    -25.67364500     -4.52779800
C          -3.28690600    -26.38135200     -5.20348300
C          -3.73660000    -26.20007200     -6.45470000
C          -1.42165800    -24.73612400     -5.13245300
H          -1.06393400    -25.41997100     -2.73259500
H          -2.84426300    -25.92646100     -1.10436600
H          -3.97351600    -26.38706600     -2.39628200
H          -3.42388400    -24.69744200     -2.25943900
H          -1.22330100    -27.75357100     -1.87841700
H          -0.55471100    -27.72123100     -3.53123700
H          -2.24160300    -28.22247000     -3.25588000
H          -3.79758300    -27.13632400     -4.59632400
H          -3.29914600    -25.46811900     -7.13939000
H          -4.57370900    -26.78808400     -6.83785700
H          -1.58106500    -24.43624000     -6.17061000
H          -0.61231300    -24.23499100     -4.59596600
