15
b3lypvdz=-308.415618453433 
O          -4.20095900    -14.86615600      4.20502200
C          -3.11881600    -15.71228500      4.24124900
C          -1.81824900    -15.40862600      4.23116400
C          -3.72583100    -10.43036400      4.54439400
C          -3.47556500    -11.37406500      5.46719700
C          -3.60038400    -12.83199400      5.33267500
C          -4.03746900    -13.49513700      4.25082700
H          -3.48477100    -16.74206200      4.25986500
H          -1.09403800    -16.22398200      4.24192800
H          -1.44881700    -14.38280400      4.21391100
H          -3.59616900     -9.37198900      4.78107100
H          -4.06256400    -10.66948700      3.53157100
H          -3.13437400    -11.04198000      6.45403000
H          -3.30563800    -13.42964100      6.20033100
H          -4.38225500    -13.00252900      3.33606400
