12
b3lypvdz=-157.109240834197 
C          -3.26966400    -26.38410600     -2.05957600
C          -1.58002500    -24.51963200     -2.35835700
C          -1.58638100    -23.29851300     -2.90092000
C          -2.20086400    -25.74932000     -2.96447400
H          -2.84818400    -26.65909200     -1.07750700
H          -3.67964900    -27.30073800     -2.51449800
H          -4.10429800    -25.68630300     -1.88124300
H          -1.09782800    -24.66316200     -1.38128200
H          -1.11884800    -22.44507500     -2.40216200
H          -2.05795300    -23.10693700     -3.87082200
H          -1.40695400    -26.49717000     -3.15386400
H          -2.63685300    -25.49875300     -3.94719600
