12
b3lypvdz=-157.109238143742 
C          -1.29544000    -27.34761700     -2.66929700
C          -2.03800600    -25.86543400     -4.58673000
C          -1.42519500    -25.02371400     -5.42440200
C          -1.79126400    -25.95886300     -3.10559000
H          -1.16042000    -27.39370700     -1.57606400
H          -0.33050500    -27.59058100     -3.14373800
H          -2.01444100    -28.13547700     -2.95240900
H          -2.78219000    -26.56669800     -4.99034000
H          -1.65167000    -25.01115700     -6.49419000
H          -0.67561300    -24.30808800     -5.06798900
H          -1.06437600    -25.18593400     -2.80151100
H          -2.73358000    -25.73563100     -2.56914000
