19
b3lypvdz=-273.746728215719 
C          -0.58595600     -7.82145000      0.92381600
C          -0.70127500     -9.02019200      1.51957600
C          -1.56067900     -9.37973000      2.65612600
C          -2.36726800     -8.56465800      3.35974400
C          -3.24309500     -8.99557500      4.50851400
C          -2.87489300     -8.23551200      5.79554300
C          -4.73180500     -8.78625000      4.16676000
H           0.09284100     -7.68081600      0.07953300
H          -1.15576300     -6.94626200      1.24751200
H          -0.09566800     -9.84491500      1.12664400
H          -1.52316900    -10.43673900      2.94713900
H          -2.42514200     -7.49859600      3.10108500
H          -3.07943600    -10.07479300      4.68014300
H          -3.00951700     -7.14762200      5.66472700
H          -1.82615400     -8.41521500      6.08171000
H          -3.51625900     -8.55172100      6.63534300
H          -4.94855700     -7.72121800      3.97454700
H          -5.37543300     -9.11312000      5.00113900
H          -5.02027100     -9.35581700      3.26890100
