13
b3lypvdz=-195.162798052352 
C          -3.82757800      4.97863700      0.79982300
C          -4.49596000      5.69012300     -0.11283500
C          -5.00614000      5.21246700     -1.45606000
C          -4.26948700      4.10603300     -2.18077400
C          -2.96019200      3.84203500     -2.13714800
H          -3.55324000      5.41562500      1.76344700
H          -3.53093100      3.94130800      0.62790000
H          -4.76838900      6.72386700      0.13127100
H          -6.06183600      4.90238400     -1.32941000
H          -5.07061200      6.08635900     -2.13370600
H          -4.89898100      3.50398200     -2.84731300
H          -2.52616100      3.04350000     -2.74478100
H          -2.27199400      4.40648100     -1.50331500
