15
b3lypvdz=-308.417721921298 
O          -2.55732800      0.65830600     -3.58073500
C          -1.50014100     -0.01421900     -3.02565000
C           1.15489200     -1.20918100     -2.09149500
C           0.18296000     -0.66321900     -1.34118800
C          -0.92057300      0.17193300     -1.82561500
C          -2.87604300      1.96540600     -3.30458200
C          -2.11861500      2.93625900     -2.78509400
H          -1.20866800     -0.83991600     -3.68012500
H           1.22891500     -1.01775200     -3.16593900
H           1.91605300     -1.85326900     -1.64461900
H           0.20195800     -0.83585800     -0.25786100
H          -1.31134100      0.93751600     -1.15088600
H          -3.90033200      2.14687400     -3.63940000
H          -2.55596800      3.93227300     -2.69999900
H          -1.08726800      2.79514800     -2.46511200
