15
b3lypvdz=-308.42108180376 
O          -2.39264200      0.68676400     -3.77608700
C          -1.17099100      0.36714100     -3.23864100
C          -0.34832100     -0.49655700     -3.83783800
C          -4.41561500      1.68822100     -3.17125600
C          -3.07951000      1.77984700     -3.26481800
C          -2.27899600      2.98176400     -2.97841300
C          -2.55223100      3.87732800     -2.01987300
H          -0.93789300      0.83812700     -2.27867500
H           0.59510000     -0.75385100     -3.35709900
H          -0.60669500     -0.95775700     -4.79232800
H          -5.00466000      2.56310900     -2.90050200
H          -4.91688400      0.74841400     -3.40384700
H          -1.40425100      3.11722200     -3.62497100
H          -3.39120300      3.74060900     -1.33303700
H          -1.94380600      4.77602000     -1.89671600
