15
b3lypvdz=-308.422678139813 
C          -2.39817000      7.10617500      5.69008300
C          -3.07660400      6.99099800      4.54828700
O          -2.52044000      7.35456200      3.34461400
C          -2.93302000      6.71817600      2.20879700
C          -3.53969800      5.51821700      2.12435100
C          -3.98646800      4.92831100      0.85884200
C          -4.45049300      5.59301600     -0.21264000
H          -2.89225400      6.88426400      6.63631500
H          -1.35784700      7.43645600      5.69879100
H          -4.11789700      6.65644100      4.48731200
H          -2.66515300      7.30474500      1.32739900
H          -3.66592000      4.91885700      3.03097700
H          -3.93231700      3.83338500      0.80873800
H          -4.58988200      6.67813700     -0.20280500
H          -4.71793600      5.06575900     -1.13126100
