16
b3lypvdz=-234.458459714779 
C          -1.30532400     -9.68397800      2.73665200
C          -2.33246100     -8.89145200      3.09096500
C          -2.72223800     -7.66907100      2.34907200
C          -2.15624200     -7.16182200      1.24360800
C          -3.17282900     -9.20617700      4.31542800
C          -2.91983600     -8.24525800      5.48879100
H          -0.67610000     -9.47175100      1.86885300
H          -1.06431400    -10.58252000      3.31036200
H          -3.58712900     -7.13671400      2.76305700
H          -1.29135600     -7.62587700      0.76075200
H          -2.54624700     -6.25154400      0.78263400
H          -4.24353200     -9.17035900      4.04017600
H          -2.96870600    -10.23986600      4.63965700
H          -3.12183800     -7.19740100      5.20978100
H          -1.87083800     -8.30322200      5.82274700
H          -3.56700800     -8.49218700      6.34646700
