12
b3lypvdz=-157.10880065418 
C          -3.28179000    -26.16522600     -2.12431600
C          -2.35185500    -25.77980600     -4.49569500
C          -3.53595800    -25.92151300     -5.09920800
C          -2.07180700    -25.89156400     -3.01838900
H          -2.98030900    -26.21677500     -1.06542100
H          -3.76701800    -27.12310400     -2.37832700
H          -4.04151100    -25.37063300     -2.22030500
H          -1.47295800    -25.55859500     -5.11657800
H          -3.63135400    -25.82143100     -6.18414200
H          -4.45285800    -26.13920300     -4.54436900
H          -1.56449700    -24.96306000     -2.68922300
H          -1.31358400    -26.68678900     -2.87052700
