13
b3lypvdz=-704.329693101761 
S          -0.23092400    -19.04885600      4.67730700
O          -1.04119800    -20.06393800      5.39794600
O           1.08506100    -18.58176600      5.17588800
C          -0.03540700    -19.55802600      2.97424100
C          -0.59314800    -20.70840700      2.56469500
C          -0.48527400    -21.32289000      1.23613700
C           0.19051200    -20.83552600      0.18347600
H          -1.03397700    -17.92316400      4.51954800
H           0.60781000    -18.90038900      2.38403400
H          -1.18952300    -21.25011100      3.30736100
H          -1.01819700    -22.27195800      1.12281600
H           0.74594600    -19.89446000      0.22830800
H           0.20852000    -21.37231000     -0.76765900
