15
b3lypvdz=-308.422953860402 
O          -2.45754200      0.66323400     -3.65373500
C          -1.24844900      0.22892100     -3.17520900
C          -0.50983100     -0.65296800     -3.86757200
C           0.72936700     -1.26428900     -3.37807900
C           1.04887500     -1.51818900     -2.09762000
C          -2.88127000      1.92415000     -3.31759600
C          -2.14611100      2.93003800     -2.83277000
H          -0.96596600      0.61947400     -2.19132900
H          -0.84595500     -0.91487900     -4.87592600
H           1.45026500     -1.54174000     -4.15692500
H           0.35159500     -1.32261200     -1.27735000
H           2.02045500     -1.94281700     -1.83411800
H          -3.95030700      2.01761900     -3.52258900
H          -2.63815900      3.87625200     -2.60364700
H          -1.07046600      2.85720600     -2.66543400
