19
b3lypvdz=-273.743758690775 
C          -0.27470400     -8.86847700      2.17971300
C          -1.37729800     -9.35403300      2.76863700
C          -2.65692300     -8.63212300      2.96620700
C          -3.11964200     -7.76390900      2.04934800
C          -3.39531200     -8.97051600      4.25815700
C          -2.58766100     -8.49569200      5.48357500
C          -4.83634200     -8.45390200      4.32445500
H          -0.22791700     -7.84149000      1.80618700
H           0.61953000     -9.48552100      2.05791500
H          -1.34615600    -10.37650500      3.16862800
H          -2.57456100     -7.58399200      1.11940800
H          -4.05470800     -7.21830600      2.18448700
H          -3.43758700    -10.07715300      4.30709800
H          -2.52522700     -7.39409000      5.50276700
H          -1.55883400     -8.88835500      5.47107700
H          -3.06582100     -8.82838700      6.42033000
H          -4.87154000     -7.35095200      4.33831500
H          -5.32611100     -8.80892200      5.24612600
H          -5.43488400     -8.80267600      3.46767000
