17
b3lypvdz=-272.520008949523 
C          -2.60587100     -8.58641800      3.04714800
C          -3.00787200     -7.65057400      2.18265800
C          -3.37050700     -9.03207600      4.26291100
C          -3.77518000    -10.48808900      4.28093200
C          -4.01874800    -13.58066600      4.30986200
C          -4.12307100    -12.74775800      3.26226700
C          -3.73856100    -11.32926400      3.23289700
H          -1.64182800     -9.08481000      2.88287800
H          -2.39354000     -7.36664700      1.32396000
H          -3.96448600     -7.13177500      2.30354700
H          -2.75328900     -8.84645700      5.16452300
H          -4.27063100     -8.40111000      4.39181300
H          -4.14959500    -10.85739400      5.24326300
H          -3.58766600    -13.25812400      5.26210200
H          -4.35584400    -14.61769200      4.24124500
H          -4.51335200    -13.14745500      2.31805800
H          -3.42795800    -10.93749100      2.25753700
