15
b3lypvdz=-308.418266419424 
C           1.68702700     -5.10322900     -2.06344600
C           0.93148800     -6.09597000     -1.57474400
C           0.45440800     -6.21588200     -0.18545100
C           0.26287300     -5.20252100      0.67349500
O           0.27840200     -7.55350900      0.15211700
C          -0.81263600     -8.01442200      0.84711900
C          -1.96944000     -7.40412900      1.11926600
H           2.04860600     -4.28574900     -1.43382900
H           1.97540900     -5.08556800     -3.11679400
H           0.63531800     -6.92741100     -2.22317100
H           0.42571800     -4.17638100      0.34381700
H          -0.06116000     -5.37338700      1.69960500
H          -0.61807100     -9.04841400      1.14366000
H          -2.73762400     -7.96901900      1.64935600
H          -2.18741800     -6.37691000      0.82810000
