16
b3lypvdz=-234.447639047817 
C          -3.76050000      4.98292000      0.81307100
C          -4.45291500      5.70131300     -0.07632200
C          -5.03536600      5.22105800     -1.39485100
C          -6.52729800      4.86971500     -1.19703500
C          -4.30829300      4.08819700     -2.09945800
C          -2.99175000      3.86437900     -2.13809800
H          -3.44330600      5.41787100      1.76442600
H          -3.48218200      3.94270800      0.62951800
H          -4.70687900      6.73821300      0.17562500
H          -5.00811500      6.08853900     -2.08509900
H          -7.07636100      5.70425900     -0.73306000
H          -6.62725200      3.99253600     -0.53676200
H          -7.00619200      4.63943700     -2.16287400
H          -4.96668100      3.42856400     -2.67915200
H          -2.57748300      3.04187200     -2.72713600
H          -2.27912800      4.48792000     -1.59239300
