17
b3lypvdz=-309.657469880542 
O           0.45010500    -21.07733700     -0.65543500
C          -0.13283300    -22.19531700     -1.16267600
C           0.43021100    -23.41407000     -1.27107200
C          -0.18669400    -24.61903700     -1.82855800
C          -1.31908700    -24.71543200     -2.55129400
C          -1.93186900    -25.98402000     -3.08359300
C          -1.21571000    -27.28693900     -2.73423800
H           1.35968800    -21.29425000     -0.39289700
H          -1.15777700    -21.98677400     -1.48003200
H           1.45237000    -23.52569300     -0.88719800
H           0.36564700    -25.54027600     -1.61697900
H          -1.87154000    -23.79982200     -2.79779700
H          -2.98197100    -26.03773800     -2.73407600
H          -2.02329700    -25.89612100     -4.18468500
H          -1.16200500    -27.43768800     -1.64347500
H          -0.18403700    -27.29984000     -3.12226200
H          -1.74300300    -28.15104600     -3.16773300
