16
b3lypvdz=-234.453178879521 
C          -2.58253200     -8.65459900      3.18265400
C          -2.87189800     -7.83491700      2.16789700
C          -3.50212200     -9.06820300      4.31685700
C          -4.88476300     -8.39726200      4.27402400
C          -3.62676100    -10.57791800      4.34981200
C          -3.24679000    -11.36552600      5.35934500
H          -1.58354800     -9.10826900      3.22593400
H          -2.12592600     -7.60769700      1.40044500
H          -3.84842000     -7.35438600      2.05966200
H          -3.00120500     -8.77009300      5.26064200
H          -4.79547500     -7.29845000      4.28491400
H          -5.48394500     -8.70543600      5.14573100
H          -5.44072800     -8.68256500      3.36380400
H          -4.07107200    -11.02855500      3.45072600
H          -3.37932500    -12.45102700      5.31922800
H          -2.79098800    -10.95369600      6.26742600
