17
b3lypvdz=-272.517777887731 
C          -1.84377300    -24.71745300     -2.29177700
C          -2.00770400    -23.43513000     -2.62778300
C          -1.69259400    -25.89625100     -3.23032200
C          -2.00630900    -25.62387000     -4.68921000
C          -3.44718100    -25.54048700     -5.02578200
C          -4.00947700    -25.93916700     -6.17704900
C          -1.03562900    -25.46557600     -5.60484600
H          -1.79513700    -24.98372400     -1.22643100
H          -2.09355900    -22.65986300     -1.86142400
H          -2.05470500    -23.11325900     -3.67291200
H          -2.33175500    -26.71468600     -2.84869100
H          -0.65708400    -26.27843900     -3.14687500
H          -4.09241900    -25.14947900     -4.22942500
H          -3.41456100    -26.38216300     -6.98252300
H          -5.08559100    -25.84319000     -6.34509700
H          -1.26917700    -25.22537700     -6.64540100
H           0.01975600    -25.56418500     -5.33414900
