15
b3lypvdz=-308.423209121983 
C          -2.28229200      7.30315900      5.74217100
C          -2.88049600      6.82999400      4.64825800
O          -2.73075200      7.43274600      3.42855500
C          -3.39967800      6.90283000      2.36099900
C          -4.34389400      5.69043300     -0.31899400
C          -4.00426500      6.96351600     -0.05357300
C          -3.33540200      7.47258400      1.14736000
H          -2.42188100      6.79556300      6.69623800
H          -1.65360800      8.19486200      5.70276000
H          -3.51862900      5.93825000      4.65144900
H          -3.99159400      6.00542900      2.57673900
H          -4.09790500      4.86677500      0.35826900
H          -4.87445300      5.43297000     -1.23855700
H          -4.23484200      7.72371600     -0.80980700
H          -2.76860800      8.40457300      1.05563300
