17
b3lypvdz=-309.655923815605 
O           0.52280700    -21.15762900     -0.68408100
C          -0.25820500    -22.19480300     -1.11225100
C          -1.49105500    -24.63009200     -2.58532100
C          -1.56672200    -23.32492200     -2.90757400
C          -0.76606000    -22.22921700     -2.35610000
C          -2.37790800    -25.70970600     -3.14346700
C          -3.19482700    -26.43754400     -2.06313300
H           0.70494900    -21.27488400      0.25751500
H          -0.45228500    -22.99210900     -0.38454200
H          -0.73155700    -24.96159200     -1.86341000
H          -2.29380200    -23.03161100     -3.67701900
H          -0.58929000    -21.35811700     -2.99662600
H          -1.75679400    -26.45693500     -3.67517800
H          -3.05884300    -25.27584500     -3.89683200
H          -2.53494900    -26.88853800     -1.30172600
H          -3.80056700    -27.24875100     -2.50053700
H          -3.87649200    -25.74280500     -1.54421700
