16
b3lypvdz=-234.447635604433 
C          -3.84846400      4.98520500      0.77037200
C          -4.44312900      5.70171900     -0.18787200
C          -4.98677000      5.20352200     -1.51633500
C          -5.12985100      6.37171300     -2.51772000
C          -4.24267800      4.05801300     -2.18127700
C          -2.93551100      3.78892400     -2.10523200
H          -3.54886900      5.44768900      1.71429000
H          -3.63966000      3.91870200      0.65458900
H          -4.62983500      6.76713000     -0.00220400
H          -6.01330400      4.83633600     -1.31439000
H          -5.77030800      7.16729700     -2.10227400
H          -5.57521100      6.03324400     -3.46617700
H          -4.14087200      6.80131200     -2.74642500
H          -4.86339900      3.44233800     -2.84417400
H          -2.49442700      2.96925500     -2.67872100
H          -2.25881100      4.36780100     -1.47214900
