13
b3lypvdz=-704.333277943182 
C           0.70793600     -1.10551700     -3.44023600
C           0.80864900     -1.43554000     -2.15463000
S           2.20213300     -2.43106800     -1.59123500
O           3.06354800     -2.72219400     -2.77121600
O           2.73182900     -1.77901100     -0.36494600
C           1.43279400     -3.97635000     -1.07085700
C           1.68315000     -5.09921900     -1.74032300
H          -0.09727000     -0.45509400     -3.79363600
H           1.44108500     -1.47415600     -4.16297000
H           0.14527500     -1.09908300     -1.35386700
H           0.83903400     -3.89551600     -0.15664600
H           1.27310700     -6.05653500     -1.40724200
H           2.31533100     -5.08041800     -2.63239700
