15
b3lypvdz=-308.421154615003 
C           0.86691600     -6.08790500     -1.45524800
C           0.21768000     -6.48688400     -0.35974000
O           0.14173400     -7.81357500     -0.01644700
C          -0.73237600     -8.19289700      0.98964200
C          -0.35730600     -9.19633300      1.79863600
C          -2.76373500     -7.27206700      2.11609200
C          -2.05014900     -7.52930700      1.01116400
H           0.94192800     -5.02393700     -1.68022000
H           1.33741300     -6.80710300     -2.12868700
H          -0.25930500     -5.79061600      0.33806200
H          -1.05856700     -9.61977800      2.51660500
H           0.64180700     -9.62592900      1.71442500
H          -2.37618400     -7.50299800      3.11230300
H          -3.75836600     -6.82468000      2.05317300
H          -2.44799000     -7.24189100      0.03064200
