15
b3lypvdz=-308.421147676861 
C           1.03231500     -6.35772700     -1.70517900
C           0.76136800     -6.45956000     -0.39456100
C           0.91177100     -5.37352800      0.59275300
C           0.64345800     -4.08099300      0.36106800
O           0.41084200     -7.70741700      0.09545700
C          -0.51177000     -7.78612800      1.10922700
C          -0.76275800     -8.93931700      1.73161600
H           1.43999400     -5.43567700     -2.11740500
H           0.88528900     -7.21386900     -2.36527800
H           1.27799700     -5.68031300      1.57966500
H           0.23258400     -3.74415300     -0.59469500
H           0.83037300     -3.32201900      1.12460200
H          -1.03462500     -6.85309000      1.34412500
H          -1.52206700     -8.97664600      2.51296300
H          -0.22857000     -9.85396200      1.46724100
