19
b3lypvdz=-273.736647000267 
C          -0.16771900    -24.60804900     -1.87853800
C          -1.38846800    -24.74384800     -2.40426600
C          -2.04568400    -26.02081500     -2.92012600
C          -3.36190200    -26.23348400     -2.14655600
C          -1.13929100    -27.25544200     -2.74367800
C          -2.28058100    -25.80995900     -4.41263200
C          -3.44992500    -25.75570800     -5.05626500
H           0.19111100    -23.63156200     -1.54199500
H           0.51929600    -25.44959200     -1.75655200
H          -2.02346800    -23.85326100     -2.50259100
H          -3.14795500    -26.38609600     -1.07657400
H          -3.89990600    -27.11961800     -2.52144300
H          -4.03073200    -25.36258800     -2.23890600
H          -0.89799200    -27.41896200     -1.68088300
H          -0.19327600    -27.14695000     -3.29725700
H          -1.65213400    -28.15335600     -3.12329400
H          -1.35406500    -25.68384600     -4.98842600
H          -3.48753000    -25.59525100     -6.13750300
H          -4.41088000    -25.86521400     -4.54671500
