19
b3lypvdz=-273.736504199193 
C          -1.55893400    -24.64707800     -2.36473400
C          -1.59234100    -23.42199000     -2.89540900
C          -2.13285500    -25.92885100     -2.96016000
C          -3.35414900    -26.34772200     -2.11463800
C          -1.04816000    -27.03221500     -2.85839800
C          -2.46998000    -25.74300800     -4.42816600
C          -3.66617500    -25.85590900     -5.01211000
H          -1.09181800    -24.78920100     -1.38099600
H          -1.16069900    -22.56716700     -2.36831800
H          -2.05530300    -23.22539100     -3.86581400
H          -3.06732100    -26.46080300     -1.05658000
H          -3.75816900    -27.31327300     -2.45990700
H          -4.15319600    -25.59205500     -2.16622100
H          -0.73798300    -27.17714200     -1.81030200
H          -0.15263000    -26.76561000     -3.44261800
H          -1.43334700    -27.99188600     -3.23846000
H          -1.60042400    -25.50298900     -5.05379200
H          -3.78222200    -25.71469100     -6.09017300
H          -4.57449400    -26.09051900     -4.45210500
