15
b3lypvdz=-308.420523492183 
O          -2.52241800      0.50788700     -3.51040200
C          -1.30411000     -0.04167600     -3.10906100
C          -0.54287300     -0.62831000     -4.04364000
C           0.12336600     -0.18279900     -1.05102600
C          -1.06351300     -0.02612400     -1.65307200
C          -2.73439500      1.85037100     -3.33174300
C          -1.84303300      2.79126200     -3.00401000
H           0.34732500     -1.18934300     -3.75777400
H          -0.82709100     -0.57625200     -5.09545700
H           1.05141400     -0.28726000     -1.62084100
H           0.20333600     -0.20667300      0.03852400
H          -1.96650200      0.11929000     -1.05015100
H          -3.78642100      2.07923400     -3.52551100
H          -2.18614500      3.82271700     -2.90683500
H          -0.78864200      2.57407600     -2.82560000
