15
b3lypvdz=-308.420545514496 
C          -3.26260500      6.98927500      4.48627000
C          -4.57796200      6.77749700      4.59260600
O          -2.51387000      7.09986700      3.34325800
C          -3.08247600      6.73217000      2.12420500
C          -3.40431700      5.29993700      1.99509300
C          -4.23720900      4.75857700      1.09552900
C          -3.16898500      7.66275900      1.16329500
H          -2.61600400      7.12626900      5.35667300
H          -5.01954900      6.72286100      5.58866400
H          -5.23039600      6.65614800      3.72720200
H          -2.88662700      4.65434400      2.71268600
H          -4.80385200      5.37147900      0.38919500
H          -4.38106100      3.67695400      1.04286200
H          -3.48013700      7.39313400      0.15390800
H          -2.89575100      8.69722700      1.37445300
