15
b3lypvdz=-308.420503555918 
C          -0.53664700    -21.55255700      1.26542500
C           0.18466500    -20.87244600      0.36835400
O           0.22019300    -21.03983700     -0.99224600
C          -0.32901800    -22.19629300     -1.55037700
C           0.34492200    -23.44925100     -1.17409300
C          -0.16652500    -24.68126500     -1.29719700
C          -1.31328000    -22.04697500     -2.44820800
H          -0.44913300    -21.27628900      2.31688600
H          -1.20426800    -22.37043700      0.99340200
H           0.83892900    -20.04381800      0.64977900
H           1.35446700    -23.31310800     -0.77414600
H          -1.18573300    -24.85208700     -1.65178600
H           0.42325800    -25.56288200     -1.03871800
H          -1.68132700    -22.90306000     -3.01277900
H          -1.73150300    -21.05979600     -2.64309500
