19
b3lypvdz=-273.746722130744 
C          -3.64021300     -9.00641100      4.27164300
C          -2.55949200     -8.57925500      5.28198900
C          -4.96101800     -8.26017400      4.53994800
C          -3.85362800    -10.49820600      4.31048700
C          -4.24179600    -13.58536400      4.27615400
C          -3.82504600    -12.79889400      3.26981000
C          -3.63126900    -11.34026400      3.28534700
H          -3.29110400     -8.73672800      3.25794300
H          -2.39247100     -7.48947000      5.24248000
H          -1.59998500     -9.08097100      5.07917300
H          -2.86036200     -8.83418300      6.31376800
H          -4.80985800     -7.16772200      4.50787600
H          -5.35851900     -8.51335000      5.53876900
H          -5.72842500     -8.52537900      3.79524100
H          -4.22186000    -10.89451400      5.26695300
H          -4.49042500    -13.19036200      5.26531700
H          -4.35097600    -14.66330000      4.13557300
H          -3.59530600    -13.27863400      2.31109200
H          -3.26684900    -10.91071900      2.34393800
