15
b3lypvdz=-308.423201629889 
C          -2.69602300      7.72160700      7.00315100
C          -2.43530200      7.15606700      5.81735100
C          -3.40558600      6.82648000      4.75784700
C          -4.73279400      7.04320400      4.78151200
O          -2.74577200      6.21969400      3.70509400
C          -3.33578200      6.20798100      2.46756600
C          -3.11770500      5.22228600      1.59624100
H          -3.70686100      8.00251500      7.31002700
H          -1.89058000      7.92507400      7.71178200
H          -1.40584000      6.88902400      5.55918400
H          -5.18733200      7.54135900      5.63742900
H          -5.38994700      6.71281800      3.97812700
H          -3.94543100      7.09097000      2.24244900
H          -3.53571000      5.28849700      0.59152300
H          -2.51363400      4.35272300      1.86291800
