15
b3lypvdz=-308.420489291001 
O          -4.16923100    -14.65666500      3.77894200
C          -3.34044300    -15.71004900      4.16078500
C          -3.92173200    -16.84263100      4.58348800
C          -0.90507600    -16.15821700      4.53393100
C          -1.89915500    -15.50925700      3.91289500
C          -3.37184600    -13.14417600      5.51301900
C          -4.02539300    -13.43475200      4.38442800
H          -3.32446800    -17.73953900      4.74960400
H          -5.00141900    -16.88446400      4.73447900
H          -1.10395600    -16.86859800      5.34302600
H           0.13862800    -15.99422400      4.25484900
H          -1.66804200    -14.76726700      3.13961000
H          -3.36734300    -12.11050600      5.86377600
H          -2.84359600    -13.89456500      6.10307300
H          -4.57292800    -12.68078900      3.80989500
