15
b3lypvdz=-308.423383930876 
C          -2.21841900      7.41996100      5.53899800
C          -3.09690200      7.18885600      4.56276000
O          -2.77025700      7.37397300      3.24403600
C          -3.38892900      6.59728300      2.28446500
C          -3.99674500      5.42539000      2.54358300
C          -3.53373900      6.69726900     -0.22504400
C          -3.26227900      7.24565600      0.96646500
H          -2.53430900      7.34256900      6.57991900
H          -1.18759700      7.70416500      5.31743000
H          -4.13716700      6.89567900      4.74441100
H          -4.49971600      4.88637400      1.74144500
H          -3.99438600      4.97084800      3.53389600
H          -3.87695600      5.66504900     -0.33168100
H          -3.41510000      7.27614000     -1.14337300
H          -2.89329800      8.27458700      1.01799100
