23
b3lypvdz=-276.188307771539 
C           1.41398700      0.90408500      0.70358500
C          -0.03060800      0.98736700      0.16398600
C           2.09389500     -0.42638300      0.34758200
C           2.21337600      2.13162200      0.21484200
C          -0.97908700     -0.13858500      0.60151000
C          -2.42106900      0.06980200      0.11742700
C           3.67190500      2.21337200      0.68849900
H           1.36116500      0.96494300      1.80952800
H          -0.46165100      1.95429700      0.48697300
H           0.00156500      1.02177800     -0.94320200
H           3.11183800     -0.48486300      0.76474600
H           1.53807400     -1.28427000      0.75755700
H           2.16535300     -0.56004100     -0.74716800
H           2.19038700      2.15626400     -0.89196500
H           1.68116600      3.04104900      0.55027900
H          -0.61446500     -1.10757200      0.21887800
H          -0.97075300     -0.21501800      1.70510700
H          -3.08093300     -0.74374200      0.46268300
H          -2.83679500      1.01942300      0.49702000
H          -2.47299400      0.09795600     -0.98550100
H           4.29454600      1.41566500      0.25249400
H           4.12348500      3.17433800      0.38943000
H           3.74531600      2.13721200      1.78801100
