20
b3lypvdz=-236.902530692938 
C           2.14431500      2.07758300      0.28294800
C           4.47174400      0.98916500      0.41015400
C           5.53781200     -0.63871300     -1.28481700
C           3.62698500      2.25644200      0.62287800
C           4.81787100      0.70118400     -1.05767600
C           4.62178200     -1.86407000     -1.21603800
H           1.68106300      1.30727400      0.92289500
H           1.99520700      1.76291800     -0.76426900
H           1.57832400      3.01203000      0.43232600
H           3.93886200      0.12793700      0.85534700
H           5.41605100      1.08017300      0.97642400
H           6.03139700     -0.62085900     -2.27250600
H           6.35390500     -0.74411100     -0.54563300
H           4.05278200      3.08091400      0.02041600
H           3.71479400      2.57926300      1.67536800
H           3.90358200      0.72598400     -1.67876400
H           5.45553300      1.52322800     -1.43151100
H           4.11168200     -1.95057000     -0.24186700
H           3.83507700     -1.81600700     -1.98943700
H           5.19043100     -2.79506400     -1.37673900
