23
b3lypvdz=-276.189908147113 
C           1.34387600      0.94371900      0.61668500
C          -0.14236600      0.85325500      0.25005100
C           2.12603600     -0.34002200      0.31542600
C           3.56637900     -0.39465300      0.86367500
C           4.40276600      0.83839800      0.49361400
C          -0.89219300      2.16904500      0.47145200
C           4.25281300     -1.69025000      0.41113500
H           1.79409200      1.79206600      0.07036800
H           1.43647000      1.19455900      1.69167900
H          -0.61581700      0.04995000      0.84425300
H          -0.24214700      0.54384400     -0.80769600
H           1.57183100     -1.20361700      0.72934200
H           2.15001900     -0.49805000     -0.78145100
H           3.49827200     -0.42263800      1.96931000
H           3.98752700      1.75887500      0.93330600
H           4.45043100      0.98229300     -0.60084300
H           5.43648800      0.73829400      0.86472700
H          -1.95690700      2.08304100      0.19826900
H          -0.84003400      2.48531700      1.52821800
H          -0.45686600      2.98105800     -0.13575000
H           4.38072300     -1.70672600     -0.68624100
H           5.25112100     -1.79894900      0.86604300
H           3.65738700     -2.57650900      0.68892600
