21
b3lypvdz=-312.08767847628 
C           1.46158800      0.92614400      0.59852600
C          -0.02262900      0.92327700      0.20269000
C           2.13452600      2.26599500      0.28588800
C          -0.87465200     -0.26305000      0.70384800
C          -0.32894000     -1.62423900      0.26591600
C          -1.09877900     -0.24897000      2.22186000
O          -0.22477900     -1.63686500     -1.15152900
H           1.98828500      0.11771500      0.06153500
H           1.57831300      0.70710900      1.67562900
H          -0.49158000      1.85365600      0.57371300
H          -0.09245300      0.95611800     -0.89759800
H           3.20451100      2.26103600      0.55277800
H           2.05493400      2.51318000     -0.78720900
H           1.65700700      3.08753200      0.84651700
H          -1.86228500     -0.15846500      0.21697400
H           0.65552000     -1.80699700      0.74492000
H          -1.01534000     -2.41794800      0.62689900
H          -1.47683600      0.73109500      2.55558100
H          -1.83842200     -1.00807900      2.52435700
H          -0.17091500     -0.45473200      2.78281600
H           0.18352600     -2.47341200     -1.41451100
