17
b3lypvdz=-197.618800386389 
C           1.34211200      0.91500900      0.67900200
C          -0.13189200      0.98981100      0.26906500
C           2.17381200      2.09134100      0.15190000
C           4.43943400      0.85939600      0.39653200
C           3.63060700      2.13749800      0.64483400
H           1.77218900     -0.03495900      0.31521700
H           1.41676500      0.87998300      1.78287900
H          -0.71398100      0.15279500      0.68754000
H          -0.59858600      1.92515400      0.62455800
H          -0.24608400      0.96137900     -0.82890700
H           2.16029200      2.07370100     -0.95542300
H           1.67704300      3.03574500      0.44504000
H           4.05004500      0.00923500      0.98013100
H           4.41777500      0.56498400     -0.66794800
H           5.49503200      0.99710400      0.68425600
H           4.13707100      2.98632800      0.15169800
H           3.64306600      2.36689600      1.72712600
