17
b3lypvdz=-197.618526872199 
C           3.76465100     -0.48776000      0.99023400
C           4.51994500      0.73175500      0.44334600
C           5.48377000     -0.56069400     -1.57461100
C           3.38289500     -0.33931700      2.46507700
C           4.78593100      0.70768700     -1.07100400
H           2.85528900     -0.66438200      0.38471000
H           4.38800900     -1.39059100      0.86662700
H           3.95187000      1.64705600      0.69157100
H           5.48501200      0.82307600      0.97782700
H           4.82263200     -1.44045600     -1.51417500
H           5.79523100     -0.45555700     -2.62674800
H           6.38768700     -0.78559200     -0.98190500
H           2.85539900     -1.23098300      2.84254800
H           4.27637500     -0.18905400      3.09571100
H           2.71951500      0.52817600      2.62496400
H           3.82940600      0.83602500     -1.61144400
H           5.39928400      1.58771100     -1.33382800
