23
b3lypvdz=-276.187923045592 
C           1.39486700      0.89675400      0.70098400
C          -0.06083600      0.83873400      0.19024400
C           2.11173300     -0.41636600      0.34498700
C           2.14952900      2.14422900      0.19660900
C          -0.93619100      2.06402000      0.49483500
C           3.61535700      2.24167100      0.64636300
C          -2.42641900      1.79892400      0.24357600
H           1.35367300      0.96353200      1.80692600
H          -0.53897000     -0.05252900      0.63760000
H          -0.05398500      0.66108100     -0.90385200
H           3.09358100     -0.49961100      0.83639700
H           1.51212300     -1.28539500      0.66618400
H           2.26755800     -0.50211300     -0.74553800
H           2.10275500      2.17535200     -0.90963600
H           1.62106200      3.04578300      0.55184800
H          -0.79428800      2.36800600      1.54906800
H          -0.61182000      2.91939900     -0.12278300
H           4.23980500      1.45057100      0.20123700
H           4.05201500      3.20829700      0.34370400
H           3.70417800      2.16397800      1.74473200
H          -2.79944600      0.98338100      0.88627500
H          -2.60803500      1.50392600     -0.80522600
H          -3.03604600      2.69427600      0.45226600
