20
b3lypvdz=-236.906097314219 
C           1.35936700      1.00806000      0.67473300
C          -0.08269900      1.06883200      0.15065200
C           2.23269000      2.18243300      0.21174600
C          -0.95921400     -0.09884300      0.62418900
C          -2.40384500     -0.02691100      0.11148100
C           3.68138300      2.10097600      0.71170200
H           1.82471400      0.05835500      0.34672300
H           1.34405400      0.98018300      1.78129700
H          -0.54538900      2.02256900      0.47091900
H          -0.06742600      1.08730000     -0.95609100
H           2.22921400      2.22133900     -0.89382700
H           1.77930500      3.13057100      0.55669100
H          -0.50242900     -1.05203000      0.29781900
H          -0.96470400     -0.12008100      1.73019600
H          -3.01018400     -0.86257400      0.49868700
H          -2.89199800      0.91170900      0.42715100
H          -2.44016200     -0.06903000     -0.99152400
H           4.16677400      1.16858100      0.37451400
H           4.28499800      2.94378700      0.33574300
H           3.72634900      2.12197500      1.81499900
