20
b3lypvdz=-236.90127287781 
C           2.14301300      2.19489600      0.19928300
C           3.57894700     -0.41070100      0.89665200
C           4.35838300      0.81277800      0.38440800
C           5.57588300     -0.59702500     -1.41464200
C           3.61001600      2.14158700      0.64966100
C           4.77528400      0.67387600     -1.09449500
H           1.52281700      1.46444700      0.74310800
H           2.03075200      1.99552200     -0.88036100
H           1.71567700      3.19242200      0.39758100
H           2.72223500     -0.65219800      0.24466900
H           3.18880300     -0.23768200      1.91430300
H           4.22137000     -1.30454200      0.94130800
H           5.29713000      0.86979300      0.96910400
H           4.95783100     -1.50463500     -1.31873700
H           5.96198500     -0.57054600     -2.44716600
H           6.44125000     -0.70555800     -0.73798300
H           4.16838400      2.96316400      0.16460300
H           3.64841800      2.35040800      1.73533100
H           3.87911600      0.70901100     -1.74158400
H           5.38360600      1.55588200     -1.36674100
