17
b3lypvdz=-197.619865527145 
C          -2.33672500      0.13987100      0.07787100
C          -3.65307300     -0.55328300      0.47895700
C          -4.86181900     -0.05654500     -0.32864100
C          -3.50798000     -2.07788000      0.35871700
C          -2.31939700      1.66360500      0.25130300
H          -1.51918700     -0.29494500      0.68137000
H          -2.10550000     -0.11116700     -0.97532100
H          -3.84377000     -0.31750900      1.54516700
H          -5.77498100     -0.60475700     -0.04112000
H          -5.05714400      1.01546700     -0.16064800
H          -4.70794700     -0.20784700     -1.41304000
H          -2.67593000     -2.45233100      0.97837100
H          -4.42541300     -2.59587100      0.68564500
H          -3.30688700     -2.37500400     -0.68638500
H          -1.31824400      2.07088600      0.03164000
H          -3.02944600      2.16624600     -0.42456800
H          -2.57815500      1.95186600      1.28558200
