12
b3lypvdz=-194.239263204305 
C           5.54378000     -0.57493300     -1.37442300
O           5.90427700     -0.56993700     -2.76068300
C           4.78864500      0.72351300     -1.12260200
C           4.72104300     -1.81720700     -1.02319600
H           6.46646900     -0.57106700     -0.75587100
H           6.38299600     -1.39187700     -2.93919500
H           4.50852900      0.81817200     -0.06057400
H           3.87075900      0.76212300     -1.73278800
H           5.41127700      1.58941800     -1.39998700
H           4.43115200     -1.82831400      0.04157200
H           3.80569300     -1.85851600     -1.63671500
H           5.30117900     -2.73727300     -1.22253900
