23
b3lypvdz=-276.19117989015 
C           1.32877000      1.00465100      0.68757600
C          -0.10183600      1.14634500      0.16104400
C           2.25880000      2.12380000      0.20491100
C          -1.07126300      0.05359400      0.62224900
C          -2.47443000      0.21178400      0.02787900
C          -3.49291000     -0.80904100      0.53578600
C           3.69412600      2.01193300      0.72411000
H           1.74066000      0.02579600      0.37292700
H           1.31603500      0.98702900      1.79494800
H          -0.50242800      2.13275400      0.46656100
H          -0.07803900      1.16277800     -0.94613000
H           2.26588400      2.12798500     -0.90163000
H           1.83336900      3.09985800      0.50629500
H          -0.66792000     -0.93944600      0.34248100
H          -1.13386900      0.05651700      1.72784100
H          -2.84072900      1.23432700      0.24095400
H          -2.40504300      0.13745400     -1.07427100
H          -4.46901300     -0.68036000      0.04014700
H          -3.15660600     -1.84377900      0.34473200
H          -3.65482800     -0.70897900      1.62342700
H           4.13806000      1.03456600      0.46460700
H           4.34249600      2.79203500      0.29330600
H           3.73641600      2.11350000      1.82294900
