20
b3lypvdz=-236.90274226645 
C           1.33035300      1.05986000      0.74763400
C          -0.10824400      0.94055200      0.21859400
C          -0.88623000     -0.30543900      0.72529500
C          -0.26264500     -1.62324600      0.23274500
C          -1.08225300     -0.35186900      2.25039300
C          -0.88038700      2.24721300      0.46673400
H           1.93603600      0.16810800      0.51595500
H           1.83418100      1.92381200      0.28277400
H           1.35685500      1.21591800      1.84062000
H          -0.03976100      0.82013900     -0.88114800
H          -1.89207000     -0.23588000      0.26842800
H           0.70794800     -1.82357200      0.71837100
H          -0.09891700     -1.61195800     -0.85884600
H          -0.92525500     -2.47511000      0.46205800
H          -1.56218900      0.56115100      2.63834900
H          -1.72926200     -1.20068200      2.52943500
H          -0.12349500     -0.48302700      2.77982900
H          -1.91263700      2.18164800      0.08253100
H          -0.93278500      2.49687800      1.54093900
H          -0.38954300      3.09300600     -0.04319000
