23
b3lypvdz=-276.186919694161 
C           1.34040000      1.01002400      0.73364600
C          -0.11558000      0.94124900      0.22742300
C           2.15483500      2.20539400      0.22104800
C          -0.85215500     -0.30897600      0.76158600
C          -1.17376900     -0.32500100      2.26197800
C          -0.90125100      2.23693700      0.48318100
C           3.64029000      2.12937300      0.58549800
H           1.85230800      0.07672700      0.42840500
H           1.35375100      1.01259600      1.84061900
H          -0.06280700      0.81134300     -0.87184800
H           2.04844000      2.27434500     -0.87862700
H           1.73116700      3.14199800      0.62397100
H          -1.79700800     -0.41375900      0.19787200
H          -0.25125500     -1.20216200      0.50844300
H          -1.76785100      0.55264600      2.56728000
H          -1.76511600     -1.21799700      2.52428000
H          -0.26445000     -0.33960100      2.88484600
H          -1.95304700      2.12880700      0.16801400
H          -0.89708400      2.52178600      1.54960100
H          -0.47743100      3.08166700     -0.08164000
H           4.10674500      1.21505100      0.17923400
H           4.20165600      2.98891300      0.18431400
H           3.78701000      2.11524000      1.67967600
