23
b3lypvdz=-276.187859972488 
C           1.36006900      0.85334600      0.79874500
C          -0.08355000      0.98167300      0.28366500
C           2.10759100     -0.42659200      0.39908300
C          -1.01237100     -0.19034700      0.61797500
C           3.58501700     -0.39770800      0.81335900
C           4.38159500     -1.66993000      0.48256200
C           4.70477600     -1.84752800     -1.00477400
H           1.93449300      1.72641800      0.43521700
H           1.36483200      0.93424300      1.90368600
H          -0.51419800      1.90940200      0.70145900
H          -0.06787300      1.12566700     -0.81328400
H           1.62340100     -1.30369100      0.86775500
H           2.02244700     -0.58339600     -0.69377500
H          -2.04609100      0.02342400      0.29848900
H          -0.70079900     -1.11926000      0.11185100
H          -1.03439600     -0.39954500      1.70221300
H           4.07920900      0.47150200      0.33700200
H           3.64143500     -0.21014000      1.90252200
H           5.32763700     -1.65375200      1.05137400
H           3.82502900     -2.55211900      0.85391300
H           5.26238600     -0.97663000     -1.39415300
H           3.79628800     -1.95672800     -1.61986400
H           5.33057400     -2.73850900     -1.17972000
