23
b3lypvdz=-276.185549549073 
C           1.40993800      0.95935000      0.72659900
C           2.07237600     -0.38380600      0.37260800
C           3.51832600     -0.47005000      0.94217000
C          -0.23810300     -1.56276900      0.20613500
C           3.59045100     -0.42085000      2.47678500
C           1.19688000     -1.59859300      0.74881500
C           4.29426900     -1.68650600      0.41278000
H           0.51300300      1.14058900      0.11438300
H           2.10366500      1.79804700      0.54333100
H           1.10147200      1.00484200      1.78547500
H           2.18295000     -0.39954100     -0.73035800
H           4.03868600      0.43090400      0.56214200
H          -0.83070500     -0.74861400      0.65314500
H          -0.25510600     -1.42524900     -0.88989100
H          -0.76290500     -2.50676000      0.43050900
H           3.10044700     -1.29510900      2.93728400
H           4.64091100     -0.42455900      2.81222900
H           3.11489700      0.48127200      2.89290500
H           1.68730700     -2.51297500      0.37358600
H           1.15822300     -1.70252300      1.84894400
H           4.23574700     -1.76081800     -0.68679000
H           5.36048600     -1.61920500      0.68753900
H           3.90908700     -2.62957700      0.83597500
