21
b3lypvdz=-312.091490360676 
C          -0.92931500     -0.15199500      0.82154200
C          -2.26258700      0.21561100      0.12776500
C          -0.35293500     -1.50141300      0.34197200
C          -3.40124400     -0.79825300      0.27528300
C          -1.05961300     -0.12640400      2.35137500
C           1.14486300     -1.63983600      0.62028200
O          -0.59673500     -1.60185900     -1.06430600
H          -0.20188500      0.62667300      0.52307100
H          -2.59091200      1.18910400      0.53582500
H          -2.06253400      0.37412800     -0.94284200
H          -0.89438100     -2.31466900      0.87072700
H          -4.31221800     -0.42692200     -0.22281700
H          -3.13887900     -1.75833900     -0.19580300
H          -3.66212800     -0.98903700      1.32959300
H          -1.40862500      0.86055700      2.69782000
H          -1.78906800     -0.87212100      2.70830800
H          -0.10476700     -0.33745200      2.85896500
H           1.70634300     -0.89138500      0.03827400
H           1.50768600     -2.63931600      0.32117400
H           1.38850800     -1.50792600      1.68648400
H          -0.20107400     -2.43044500     -1.37089400
