23
b3lypvdz=-276.188989017436 
C           1.39133000      0.98348300      0.67987400
C          -0.11091300      1.15002300      0.41321700
C           2.22199900      2.23986300      0.39031900
C          -0.95556100     -0.08217500      0.81107300
C          -2.20121100     -0.22035900     -0.07498100
C          -1.34283900     -0.03635900      2.29752400
C           3.73228400      1.98440300      0.43281000
H           1.76567000      0.15482500      0.04895300
H           1.56048700      0.66505700      1.72636800
H          -0.49380200      2.04143200      0.94655400
H          -0.24802900      1.36171400     -0.66341000
H           1.94553600      2.63544200     -0.60528500
H           1.95451700      3.03074300      1.11479900
H          -0.32981200     -0.98057800      0.64433500
H          -2.83508700     -1.06473100      0.24641200
H          -2.82106400      0.69345900     -0.03837300
H          -1.91967800     -0.39237300     -1.12804600
H          -2.05856200      0.78311200      2.48761100
H          -1.82382200     -0.97450700      2.62327800
H          -0.46493600      0.13193300      2.94332500
H           4.02728500      1.22677600     -0.31331600
H           4.30727600      2.90089500      0.22149800
H           4.05003300      1.60722300      1.42095900
