21
b3lypvdz=-274.993772993074 
C           1.40721800      0.92653100      0.71810900
C          -0.07079300      0.98101400      0.29565000
C           2.07882000     -0.37799000      0.26201300
C          -0.88296200     -0.25875600      0.73530700
C          -0.17582800     -1.55784500      0.28916800
C          -1.19744200     -0.25792400      2.23975500
C           1.30043700     -1.62191900      0.71809300
H           1.94655000      1.79167000      0.29446900
H           1.49066700      1.02307400      1.81698900
H          -0.54757900      1.89546400      0.68995200
H          -0.11949100      1.05831300     -0.80738400
H           3.11602300     -0.42268000      0.63732700
H           2.14517900     -0.38047500     -0.84333900
H          -1.85340800     -0.21208200      0.20780200
H          -0.22986600     -1.63017300     -0.81356000
H          -0.72441400     -2.43145900      0.68361900
H          -1.69257900      0.68025400      2.54280700
H          -1.87711200     -1.08667700      2.50064700
H          -0.29111700     -0.36934500      2.85817400
H           1.76941400     -2.52880500      0.29823200
H           1.37228200     -1.72139100      1.81726900
