20
b3lypvdz=-236.901681878093 
C           1.33449300      0.88101700      0.61109300
C           2.16170200     -0.39716100      0.43391200
C           3.58836000     -0.32120800      1.00541300
C           4.48490100      0.79546400      0.44544500
C           5.43041300     -0.56429200     -1.53152600
C           4.77335500      0.73992600     -1.06426800
H           0.29571700      0.73114100      0.27319200
H           1.74836700      1.72386500      0.03315000
H           1.30052100      1.19465700      1.66966200
H           1.63935200     -1.23467400      0.92970300
H           2.19658500     -0.66170000     -0.63899800
H           3.52529100     -0.19219200      2.10193100
H           4.08278100     -1.29747800      0.84999200
H           4.03590100      1.77644900      0.68539300
H           5.44745100      0.76716500      0.98829400
H           4.74194800     -1.42220100     -1.45869600
H           5.75788000     -0.49361700     -2.58188000
H           6.31978500     -0.80379800     -0.92292200
H           3.84257600      0.91046500     -1.63584400
H           5.43552300      1.58707300     -1.31834500
