17
b3lypvdz=-197.619970801115 
C          -1.00596300     -0.25935500      0.74892200
C          -2.28842400      0.13879300      0.00625900
C          -3.57451800     -0.56697100      0.47666700
C          -4.79578300     -0.02331300     -0.28204700
C          -3.49753000     -2.09501400      0.34357200
H          -0.15685300      0.36021200      0.41655400
H          -0.73422000     -1.31250500      0.56697300
H          -1.11260900     -0.11957500      1.83965900
H          -2.43310000      1.22991800      0.11690400
H          -2.15518200     -0.04632600     -1.07787900
H          -3.71179600     -0.32518000      1.54953000
H          -5.73028300     -0.47677300      0.08911100
H          -4.88460000      1.07098600     -0.16830500
H          -4.72382900     -0.24502600     -1.36255600
H          -2.70725600     -2.52886000      0.97615400
H          -4.44958200     -2.56312700      0.64642800
H          -3.29597200     -2.39288700     -0.70154500
