23
b3lypvdz=-276.189567935666 
C           0.06469600      0.78529800      0.23887700
C          -1.05164800     -0.14068100      0.74282100
C          -2.39325400      0.22181200      0.07345800
C          -3.62900900     -0.60507900      0.47905000
C          -4.88243600     -0.09706100     -0.24862400
C          -1.12404300     -0.11473200      2.27460500
C          -3.43726100     -2.10896400      0.23448700
H           1.04391100      0.49025500      0.65226000
H          -0.12274900      1.83162400      0.54149700
H           0.14314600      0.76407500     -0.86126300
H          -0.78406600     -1.16920000      0.43401700
H          -2.60393700      1.29070600      0.27514800
H          -2.26719900      0.13819700     -1.02433700
H          -3.79799300     -0.45472300      1.56260800
H          -5.78053900     -0.64711600      0.07879500
H          -5.05441000      0.97514100     -0.05363900
H          -4.79236800     -0.22868300     -1.34250100
H          -1.42035700      0.88492300      2.64213200
H          -1.84806000     -0.84247700      2.67308100
H          -0.14249300     -0.35455800      2.71725800
H          -2.59966100     -2.52518500      0.81661000
H          -4.34122200     -2.67507700      0.51608000
H          -3.23564800     -2.31219700     -0.83312000
