21
b3lypvdz=-312.087966162054 
C           0.02241300      0.96376200      0.25824300
C          -0.96035000     -0.13614800      0.70101200
C          -2.34467000      0.16587700      0.06746100
C          -0.43694500     -1.50448000      0.22727400
C          -3.49957200     -0.76840500      0.43579900
C          -1.03278500     -0.16630700      2.23753100
O          -0.41528600     -1.52764200     -1.19597200
H           1.02030700      0.80833800      0.70217500
H          -0.33602200      1.95676600      0.57786600
H           0.13457700      0.97026800     -0.83645500
H          -2.62080900      1.20221200      0.33510300
H          -2.21195100      0.14575600     -1.02673300
H           0.57856400     -1.66228000      0.64602500
H          -1.08229500     -2.31104200      0.62901600
H          -4.40479500     -0.48806200     -0.12702600
H          -3.27897600     -1.81962600      0.18575900
H          -3.75291100     -0.72160100      1.50803900
H          -1.38641600      0.80030400      2.63467000
H          -1.71575900     -0.94607500      2.60962200
H          -0.03912400     -0.36259900      2.67605500
H          -0.03579500     -2.37211700     -1.47516400
