23
b3lypvdz=-276.184771287004 
C           1.36527800      0.93959100      0.61503200
C           2.14290800     -0.36653600      0.40998900
C           3.60825500     -0.39715700      0.92863000
C           4.39016800      0.84766700      0.46527500
C           3.61251100     -0.43723300      2.46904700
C           4.29767000     -1.69913300      0.43021100
C           4.62608600     -1.79470400     -1.06450400
H           0.32735700      0.82798200      0.26068000
H           1.81159200      1.77413300      0.05027700
H           1.32130100      1.24354800      1.67441500
H           1.59781800     -1.19197300      0.90282400
H           2.13659000     -0.60538800     -0.66855400
H           4.00366800      1.75930400      0.94827600
H           4.32468500      0.99846000     -0.62486300
H           5.45832300      0.76504800      0.73028100
H           3.05911900     -1.31214900      2.85003200
H           4.64320200     -0.50297700      2.85708400
H           3.15162900      0.46239500      2.90768700
H           5.23505700     -1.82850100      1.00096300
H           3.65394300     -2.55166300      0.71766000
H           5.35686900     -1.03107500     -1.37592800
H           3.73378300     -1.67630300     -1.70064600
H           5.06748900     -2.77753600     -1.29986500
