21
b3lypvdz=-312.089015674016 
C           0.11535900      0.98291300      0.28224800
C          -0.94938200     -0.07581900      0.59933800
C          -2.30445600      0.27311200     -0.04933100
C          -0.46547900     -1.47717700      0.20674900
C          -3.48314400     -0.59134500      0.40939100
C          -4.81352100     -0.20468200     -0.24284800
O          -0.38467800     -1.54415600     -1.21505600
H           1.05890000      0.76735600      0.81114000
H          -0.21964100      1.98667400      0.59182800
H           0.33236400      1.00800100     -0.79757500
H          -1.09248100     -0.09819900      1.69816100
H          -2.53105600      1.33287500      0.17287100
H          -2.19665700      0.19119400     -1.14559500
H           0.52316400     -1.66458100      0.67421900
H          -1.16077600     -2.24412400      0.60134900
H          -3.27488700     -1.65309600      0.18531200
H          -3.57901500     -0.51771200      1.50995900
H          -5.63869300     -0.83457300      0.12706600
H          -5.07401200      0.84693300     -0.02990400
H          -4.77221900     -0.32074900     -1.34018900
H          -0.03318900     -2.41314600     -1.45263400
