18
b3lypvdz=-272.802748768838 
C           3.57680000     -0.39043100      0.92729800
C           4.38602000      0.80731700      0.40356800
C           5.54462400     -0.60927600     -1.43013300
C           3.62477400      2.12322800      0.61794500
C           4.78146400      0.66278900     -1.07702500
O           6.02736500     -0.45820000     -2.76246600
H           2.68655200     -0.57616200      0.30070400
H           3.22515300     -0.21145600      1.95758100
H           4.17361200     -1.31734100      0.94273600
H           5.32123500      0.86293100      0.99434100
H           4.88010800     -1.49223700     -1.34100100
H           6.38016000     -0.75808200     -0.71256300
H           2.66642000      2.12122800      0.07012300
H           4.21030500      2.98556500      0.25670800
H           3.39850200      2.28868100      1.68456700
H           3.87798400      0.72325800     -1.71225300
H           5.41843800      1.51726200     -1.36646800
H           6.47018200     -1.28147300     -3.01136300
