21
b3lypvdz=-312.086783671509 
C           2.15139700      2.23717500      0.21682700
C           3.55268100     -0.41297600      0.86203700
C           4.35419700      0.80586000      0.37236500
C           5.60904400     -0.59390700     -1.40643600
C           3.61870300      2.14161300      0.64309200
C           4.79537800      0.66981600     -1.09951400
O           1.92672800      2.11772200     -1.18687400
H           1.56428800      1.42346700      0.67209300
H           1.72325800      3.18398900      0.60702800
H           2.70978500     -0.64318600      0.18885900
H           3.14066500     -0.24732200      1.87255400
H           4.18708400     -1.31191600      0.91368600
H           5.28177500      0.85034000      0.97609500
H           4.99175300     -1.50434100     -1.33460900
H           6.02290900     -0.55922200     -2.42760000
H           6.45735100     -0.70973600     -0.70909800
H           4.18160100      2.96579500      0.16104900
H           3.65776400      2.35038500      1.72925000
H           3.90419800      0.71347100     -1.74719300
H           5.40562700      1.55670800     -1.35566900
H           2.43511200      2.82076600     -1.61864300
