23
b3lypvdz=-276.188470276908 
C           1.47966000      0.86516200      0.77935500
C           0.05207800      1.06243000      0.25748100
C          -0.95496200     -0.05681000      0.59751600
C          -2.32112800      0.25999600     -0.04598200
C          -0.44182700     -1.45078600      0.20617200
C          -3.50180600     -0.59633100      0.42489200
C          -4.83216300     -0.21155900     -0.23016400
H           1.97752800      0.00521400      0.30377400
H           2.09938000      1.75331600      0.57054900
H           1.49724300      0.69735100      1.87100100
H          -0.35005700      2.01163800      0.65562600
H           0.08384900      1.18750200     -0.84240600
H          -1.09492800     -0.05266400      1.69819400
H          -2.56042900      1.32288400      0.15162600
H          -2.22498900      0.16786300     -1.14684200
H           0.46277300     -1.72638100      0.77002200
H          -0.19370500     -1.49429900     -0.87030400
H          -1.19330700     -2.23054500      0.40676600
H          -3.30005600     -1.66259000      0.21728600
H          -3.59459000     -0.50671600      1.52421800
H          -5.65876500     -0.83711200      0.14359100
H          -5.09132500      0.84200800     -0.02503300
H          -4.79347400     -0.33497100     -1.32723800
