21
b3lypvdz=-312.095010081033 
C          -0.81406600     -0.06018100      0.56463200
C          -2.19257200      0.31323800     -0.01927500
C          -0.32673100     -1.47829000      0.26228000
C          -3.29091500     -0.71023900      0.29820000
C           1.09976100     -1.71245400      0.76015300
C          -2.59258800      1.71745800      0.45376500
O          -0.41461700     -1.66362100     -1.15356800
H          -0.06608100      0.65307300      0.17120500
H          -0.82353400      0.06916600      1.66367200
H          -2.07511400      0.33334900     -1.11688000
H          -0.99913400     -2.19942300      0.77197400
H          -4.25455500     -0.38085100     -0.12582800
H          -3.06358800     -1.69444900     -0.14002500
H          -3.43466800     -0.83998100      1.38608100
H           1.80229600     -1.03832400      0.24508100
H           1.41870600     -2.75167600      0.56433400
H           1.17988300     -1.53954500      1.84710100
H          -1.83280800      2.46969200      0.18333000
H          -3.55000400      2.03563400      0.00887400
H          -2.70778500      1.74489300      1.55291700
H          -0.06928600     -2.54497000     -1.35722300
