21
b3lypvdz=-312.086874553004 
C           1.35850900      0.94946600      0.75854600
C          -0.10724900      0.96644400      0.27041900
C           2.08208500     -0.37326300      0.42732400
C           2.09952300      2.17538100      0.21173600
C          -0.95869300     -0.23598700      0.68277500
C           3.57496500     -0.39669400      0.76672900
O           2.32099000      1.98317300     -1.18347500
H           1.35647700      1.06638700      1.86169400
H          -0.57931900      1.88916900      0.65490400
H          -0.10196100      1.06317800     -0.83003100
H           1.57877800     -1.18863100      0.97306100
H           1.95310800     -0.58855800     -0.64750000
H           3.05735300      2.31261700      0.75053200
H           1.48712600      3.08154000      0.40093000
H          -2.01024700     -0.09171100      0.38429700
H          -0.61182900     -1.16870400      0.21019100
H          -0.94052200     -0.39369000      1.77582800
H           4.14413400      0.30572500      0.13841500
H           3.76153600     -0.13295600      1.82317500
H           3.99962300     -1.39991600      0.59651100
H           2.78791300      2.75842900     -1.52436000
