9
b3lypvdz=-154.947876743977 
C           5.56458300     -0.57737100     -1.40095100
O           5.94997000     -0.55978700     -2.77670900
C           4.78355700      0.69496400     -1.12172500
H           4.93296400     -1.46260200     -1.17349000
H           6.45882600     -0.62573300     -0.74494300
H           6.43323500     -1.37779600     -2.95629100
H           4.47151700      0.74066600     -0.06486700
H           3.88190600      0.74324100     -1.75397800
H           5.39944300      1.58151900     -1.34704700
