21
b3lypvdz=-312.092788616154 
C          -0.05901600      1.06533200      0.25244200
C          -0.89395800     -0.15100000      0.69596300
C          -2.30257800     -0.05211500      0.07329600
C          -0.23828400     -1.48060300      0.22970500
C          -1.03569100     -0.15746400      2.22907400
C           1.20523100     -1.71307900      0.68966400
O          -0.29538800     -1.48698500     -1.20249000
H           0.91194600      1.11338200      0.77097100
H          -0.59860200      2.00019500      0.47987100
H           0.13267200      1.03218400     -0.83134800
H          -2.92246200     -0.92461000      0.34326700
H          -2.81935400      0.84981600      0.44198600
H          -2.25073300     -0.00612800     -1.02374000
H          -0.86708000     -2.30551200      0.63031000
H          -1.53758900      0.76287500      2.57121300
H          -1.64677500     -1.00888400      2.57475800
H          -0.06131100     -0.21015400      2.74061500
H           1.88333900     -0.96886700      0.24419000
H           1.54827400     -2.71015200      0.36039100
H           1.31206200     -1.67813000      1.78543100
H           0.09129700     -2.32120200     -1.50516900
