14
b3lypvdz=-158.333826434344 
C           5.51974900     -0.54676500     -1.37586800
C           4.31936500     -1.83133500      0.52238900
C           4.78988800      0.79207100     -1.20459700
C           4.70737700     -1.78541300     -0.96186000
H           5.81197400     -0.65954800     -2.43588400
H           6.46320500     -0.52323600     -0.79938700
H           3.62898500     -1.01616600      0.79537200
H           5.21145400     -1.74693100      1.16790400
H           3.81550800     -2.78123500      0.76982600
H           4.57834900      1.01495300     -0.14525200
H           3.82923100      0.79573400     -1.74857700
H           5.39828900      1.62201700     -1.60128200
H           3.79304400     -1.84563800     -1.58172700
H           5.30058200     -2.68610800     -1.20555700
