18
b3lypvdz=-272.804166174136 
C          -0.85560500     -0.22632000      0.74216200
C          -2.18492300      0.18412900      0.07805900
C          -0.37581400     -1.58423900      0.22401300
C          -0.94522100     -0.25655300      2.27272000
C          -2.52538900      1.66994800      0.21362600
O          -0.13445200     -1.47925500     -1.17344200
H          -0.08397200      0.50909300      0.44427900
H          -3.00072400     -0.42939100      0.50631500
H          -2.12356800     -0.07924700     -0.99011800
H           0.54529700     -1.87842400      0.76790200
H          -1.14483100     -2.35469000      0.44531200
H          -1.25541900      0.71649600      2.68424600
H          -1.68516400     -1.00426900      2.60869400
H           0.02259400     -0.52065600      2.73161500
H          -1.74294000      2.30035200     -0.24321300
H          -3.47239600      1.90925100     -0.29733700
H          -2.62951900      1.98543600      1.26514100
H           0.17784500     -2.33725900     -1.49167400
