20
b3lypvdz=-236.904617035663 
C          -2.35493200      0.15270200      0.25186600
C          -3.73158100     -0.46814900      0.52580800
C          -4.85768200      0.00649700     -0.39908700
C          -6.19695700     -0.67930800     -0.12464100
C          -0.84214300      2.20339700      0.29020100
C          -2.25950800      1.66517400      0.49011800
H          -1.60687400     -0.34785200      0.89375000
H          -2.05128700     -0.07180800     -0.78956900
H          -3.64651700     -1.56807900      0.44207100
H          -4.01845300     -0.26653200      1.57701800
H          -4.98336800      1.10004700     -0.29973500
H          -4.56066400     -0.17344700     -1.45068000
H          -6.99018600     -0.30230300     -0.78999300
H          -6.13165900     -1.77193800     -0.27269000
H          -6.52641800     -0.50872000      0.91560000
H          -0.48753600      2.01440900     -0.73851000
H          -0.12630200      1.71296000      0.97137800
H          -0.78303900      3.28999900      0.46889500
H          -2.95032300      2.20148400     -0.18509700
H          -2.60847100      1.89606800      1.51499800
