23
b3lypvdz=-276.18788463009 
C           1.24958800      0.79959500      0.68976800
C          -0.20621000      0.91902800      0.22338900
C           2.01230700     -0.47843300      0.28713500
C           3.43822100     -0.40970600      0.87286500
C          -0.77689700      2.31504400      0.49217900
C           1.27600500     -1.77259500      0.66404100
C           4.36840700     -1.57258100      0.51815300
H           1.81395900      1.66482100      0.29278200
H           1.28051500      0.90677000      1.79258600
H          -0.83008500      0.16233000      0.73096800
H          -0.27600400      0.69439800     -0.85796800
H           2.10614500     -0.47069100     -0.81784800
H           3.89847500      0.53458700      0.52883400
H           3.36575600     -0.32233100      1.97439600
H          -1.82851800      2.39761300      0.17182900
H          -0.72983500      2.56241700      1.56746700
H          -0.20287300      3.08793400     -0.04631300
H           0.28921800     -1.82887200      0.17835700
H           1.84222200     -2.65990400      0.33922900
H           1.11979200     -1.85483100      1.75481500
H           4.43801100     -1.71857300     -0.57390000
H           5.38701200     -1.38730000      0.89641300
H           4.02598900     -2.52391900      0.95662400
