21
b3lypvdz=-312.085913140985 
C           2.05073600     -0.36266900      0.34115900
C           3.47818500     -0.34686000      0.90328900
C           4.37950600      0.77892600      0.36986300
C           5.53789800     -0.60965200     -1.46779200
C           1.26892600     -1.61314700      0.75318800
C           4.79965900      0.67691400     -1.10685600
O           6.07067800     -0.44279500     -2.77863300
H           1.51778300      0.54296800      0.68793000
H           2.07465900     -0.29492400     -0.76206300
H           3.42335600     -0.26031600      2.00432200
H           3.95272200     -1.32797900      0.71023300
H           3.86750900      1.74726300      0.52409200
H           5.29344300      0.82111300      0.98977700
H           4.84768500     -1.47664000     -1.42382800
H           6.34230100     -0.80126300     -0.72518300
H           0.23877600     -1.59997800      0.36184100
H           1.75565600     -2.52697900      0.36953400
H           1.21138300     -1.70923000      1.85159500
H           3.93179600      0.78528700     -1.78061000
H           5.47591900      1.51587000     -1.34608600
H           6.50312400     -1.27180800     -3.02807200
