15
b3lypvdz=-233.523476405961 
C           2.10489500     -0.38954600      0.32633200
C          -0.96275500     -0.26301400      0.71968700
C          -0.22460800     -1.51215800      0.25423500
C           1.23889800     -1.59030100      0.72576700
O          -0.30753200     -1.50671600     -1.17716400
H           1.78213600      0.53264200      0.83685800
H           3.16058700     -0.56292000      0.59445600
H           2.04875100     -0.21096000     -0.75988800
H          -0.53580700      0.63900000      0.25340600
H          -2.02285500     -0.31355600      0.42238000
H          -0.91026700     -0.15489000      1.81586300
H          -0.76086000     -2.40087800      0.65262600
H           1.68164200     -2.51119800      0.29861800
H           1.26133400     -1.72211300      1.82401000
H           0.12624100     -2.31159300     -1.49588600
