23
b3lypvdz=-276.187832607528 
C           2.19456900     -0.34284600      0.33322600
C          -0.96176200     -0.09914200      0.64574000
C           3.61133000     -0.50635700      0.91310500
C          -2.42368200     -0.05212800      0.19245300
C          -0.20240400     -1.32155400      0.11334400
C           1.22786900     -1.49379900      0.65230700
C           4.32188700     -1.81048500      0.53549100
H           1.77759300      0.60435100      0.71682500
H           2.26120300     -0.22159300     -0.76550500
H          -0.45306200      0.82694200      0.32474700
H          -0.92010500     -0.10217900      1.75176600
H           4.22531000      0.34913100      0.57796700
H           3.56523200     -0.42701400      2.01595900
H          -2.96332300     -0.97008800      0.48461800
H          -2.95954400      0.80023800      0.64035000
H          -2.50383200      0.04113100     -0.90480300
H          -0.18011900     -1.28328800     -0.99306000
H          -0.77833300     -2.23084700      0.37053600
H           1.63680200     -2.43083200      0.23684800
H           1.18619700     -1.64409000      1.74869000
H           4.37305700     -1.94181400     -0.55981600
H           5.35353700     -1.82518100      0.92327400
H           3.80818200     -2.69265600      0.95023900
