23
b3lypvdz=-276.185372124151 
C          -1.04133600     -0.32989400      0.77767200
C          -2.28149800      0.18460400      0.02344600
C          -3.59179800     -0.53492400      0.45630400
C          -4.81565300     -0.01167600     -0.32849200
C          -6.17332400     -0.60485600      0.07824300
C          -3.47330800     -2.06302600      0.33031200
C          -2.36521900      1.71466600      0.17799900
H          -0.14793900      0.24930300      0.48882300
H          -0.82455300     -1.38752400      0.55841100
H          -1.16506600     -0.22638800      1.87187500
H          -2.13040800     -0.03549000     -1.05313000
H          -3.75619000     -0.29562700      1.52814400
H          -4.88018000      1.08188300     -0.20338200
H          -4.64965700     -0.19303700     -1.40943300
H          -6.99191000     -0.08197800     -0.44402400
H          -6.25924600     -1.67483000     -0.17596200
H          -6.34694100     -0.49682800      1.16400900
H          -2.66094300     -2.46744900      0.95291000
H          -4.39640900     -2.56849700      0.65573600
H          -3.27790100     -2.36034700     -0.71663000
H          -1.39852600      2.18326000     -0.07242600
H          -3.11886600      2.16748700     -0.48328300
H          -2.61362900      1.99626700      1.21787900
