23
b3lypvdz=-276.189129003642 
C           1.40722900      0.91072200      0.70100600
C          -0.01392900      1.06591300      0.13532500
C           2.04512000     -0.47235200      0.51253700
C          -1.03522800      0.01962600      0.59967000
C           3.52559700     -0.49343500      0.89696100
C          -2.45698800      0.31583000      0.10678200
C          -3.46352100     -0.78552100      0.44254900
H           2.05460400      1.66916000      0.22386300
H           1.40602100      1.15695300      1.78013800
H          -0.38808300      2.07075500      0.40465200
H           0.03076800      1.04660800     -0.97027800
H           1.50120600     -1.21620600      1.12050000
H           1.93110200     -0.79851000     -0.53818100
H          -0.73209400     -0.98190000      0.24352800
H          -1.03486200     -0.03964100      1.70528800
H           4.11536300      0.18624700      0.25976700
H           3.67245700     -0.16835800      1.94200800
H           3.95884900     -1.50192600      0.79567200
H          -2.79835300      1.27348400      0.54068100
H          -2.43777200      0.47234300     -0.98788900
H          -4.46908100     -0.53935400      0.06358100
H          -3.16532500     -1.74768500     -0.00835000
H          -3.54488000     -0.94395400      1.53139100
