23
b3lypvdz=-276.186890188241 
C           2.07940100     -0.31684700      0.47611900
C          -1.04577200     -0.32983300      0.68594700
C           3.55504900     -0.42525400      0.89054300
C          -0.19817200     -1.53550300      0.24651800
C          -1.23667100     -0.19875400      2.19887000
C           3.77585700     -0.50007400      2.40491100
C           1.24882600     -1.57375900      0.77138900
H           1.63296500      0.55468100      0.99054300
H           2.02184300     -0.09070700     -0.60543600
H          -0.59610500      0.60009600      0.29211800
H          -2.03368100     -0.40824800      0.19886300
H           4.10425300      0.44511200      0.48911000
H           4.00691800     -1.31114400      0.40522500
H          -0.18246800     -1.56799100     -0.85880200
H          -0.70909000     -2.46253400      0.56908400
H          -1.91531100      0.63386700      2.44699400
H          -1.67294600     -1.11731600      2.62995600
H          -0.28319100     -0.01178700      2.72028400
H           3.33602200     -1.41000200      2.84567000
H           4.84907300     -0.49848400      2.65690100
H           3.31231100      0.36172400      2.91680000
H           1.75598000     -2.44578800      0.31677700
H           1.24560700     -1.76565400      1.85921300
