23
b3lypvdz=-276.186847055503 
C           2.25799900     -0.61725000      0.49565400
C          -0.83956300     -0.06288600      0.71219500
C          -2.23380900      0.17165400      0.09397500
C          -0.20794000     -1.34947700      0.14337600
C          -0.90629600     -0.08169800      2.24635000
C           1.20029300     -1.71692100      0.64535300
C          -2.76781300      1.60010300      0.24138100
H           2.04783500      0.25260900      1.13998800
H           3.25651600     -0.99548800      0.77254500
H           2.31803800     -0.24543900     -0.54250000
H          -0.19885200      0.78804500      0.40631300
H          -2.94896500     -0.54196500      0.54599700
H          -2.19589300     -0.08595900     -0.98057600
H          -0.17895800     -1.25549600     -0.95870700
H          -0.88595300     -2.19873800      0.35638400
H          -1.33949600      0.84745400      2.65058600
H          -1.53716800     -0.91788400      2.59837400
H           0.08788400     -0.20258500      2.70405000
H           1.53351800     -2.61107400      0.08900900
H           1.15464600     -2.02906100      1.70430800
H          -2.09601100      2.32609400     -0.24904700
H          -3.75991500      1.70432100     -0.22799900
H          -2.86849600      1.90423800      1.29648900
