14
b3lypvdz=-158.333662621085 
C           1.41478600      0.92504700      0.70614500
C           3.65243500      2.22947000      0.67164600
C           2.02399000     -0.42853300      0.31820800
C           2.18902100      2.15983500      0.21384200
H           0.38540800      0.97972100      0.30772100
H           1.32111000      0.97411400      1.80766900
H           4.25538400      1.41127300      0.24503400
H           4.11861200      3.17678400      0.35260800
H           3.73311000      2.16970100      1.77182100
H           2.99738300     -0.59672800      0.80815900
H           1.35906200     -1.25472400      0.62129700
H           2.17674200     -0.50435100     -0.77318800
H           2.15120700      2.19496400     -0.89200700
H           1.65944900      3.06372700      0.56624600
