21
b3lypvdz=-312.092628840118 
C           1.37677500      0.91986700      0.69480400
C          -0.08690500      0.91464600      0.20109900
C           2.05257000     -0.40976200      0.32035800
C           2.15776900      2.14917400      0.19627300
C          -0.88834000      2.19214500      0.48154900
C           3.61346200      2.21325600      0.66951000
O           2.08890400      2.13480100     -1.23530200
H           1.35713300      0.99621600      1.79935600
H          -0.59791100      0.06034900      0.68068200
H          -0.09701300      0.71438100     -0.88420800
H           3.03977400     -0.52428800      0.79561200
H           1.43220000     -1.26064200      0.64828900
H           2.18563200     -0.48545700     -0.77105900
H           1.64069300      3.05208400      0.58076600
H          -1.94872400      2.05235700      0.21141200
H          -0.85002500      2.47056000      1.55030600
H          -0.51208100      3.04409700     -0.10705000
H           4.21467000      1.41350000      0.21054000
H           4.06872800      3.17535300      0.37206000
H           3.69137600      2.13223300      1.76718100
H           2.53801200      2.93002800     -1.55607900
