21
b3lypvdz=-274.986886527964 
C           1.33794300      0.93128200      0.68963400
C          -0.07105200      0.88345800      0.08930500
C           2.17742900     -0.32815300      0.45261200
C          -0.97334800     -0.27520000      0.55704400
C          -2.38479400      0.16079000      0.12302600
C          -0.91738000      2.13581600      0.41522700
C          -2.40537900      1.70405800      0.29503800
H           1.86725800      1.80787900      0.27326800
H           1.25831200      1.11812400      1.77802800
H           0.01949800      0.80033800     -1.01221600
H           3.19262500     -0.21411700      0.86607300
H           1.72430600     -1.21109100      0.93314600
H           2.27646500     -0.55265100     -0.62365000
H          -0.68095100     -1.25086900      0.13785300
H          -0.91962100     -0.36196500      1.65954000
H          -3.18139700     -0.34601800      0.68908400
H          -2.53594800     -0.10053500     -0.93899600
H          -0.69640000      2.45616000      1.44904300
H          -0.66579700      2.98760000     -0.23608600
H          -2.90568900      2.19201800     -0.55603300
H          -2.97087800      1.99807800      1.19406000
