20
b3lypvdz=-236.904203412375 
C           1.33023800      0.96629800      0.65174300
C          -0.13967700      0.89463200      0.22330000
C           2.10948900     -0.32521800      0.37581300
C           3.53796000     -0.34499700      0.94003200
C           3.59825700     -0.53081100      2.45942900
C          -0.89584600      2.20785100      0.43210500
H           1.82417600      1.80654800      0.12638100
H           1.37848400      1.21840900      1.72854500
H          -0.63792000      0.08413700      0.78731300
H          -0.19934000      0.59650900     -0.84108100
H           1.55010000     -1.18559600      0.79215100
H           2.14132900     -0.48916100     -0.71732000
H           4.05988300      0.58852300      0.65462800
H           4.10507000     -1.16035500      0.45724900
H           3.07987000     -1.45834200      2.76151900
H           4.63784400     -0.60180600      2.81862800
H           3.11738000      0.29859600      3.00396500
H          -1.94799000      2.12756400      0.11274800
H          -0.88842900      2.50901600      1.49458900
H          -0.43567800      3.02890400     -0.14413700
