21
b3lypvdz=-312.092971198414 
C           1.32240000      0.88363600      0.59970000
C          -0.17261700      1.03093000      0.30664100
C           2.14137800      2.08925700      0.13131300
C           4.47985400      0.89310100      0.38548900
C           3.59145300      2.12139800      0.64557600
C           4.86500200      0.65926200     -1.07905000
O           2.06558500      2.08871800     -1.30038400
H           1.71854100     -0.01974000      0.10523600
H           1.48622600      0.74721000      1.68418600
H          -0.74163800      0.15173200      0.64899100
H          -0.59216900      1.91315200      0.82084900
H          -0.34278000      1.16287800     -0.77299400
H           1.64449800      3.00102100      0.53132300
H           3.97819400     -0.00747700      0.78473600
H           5.39702900      1.01056500      0.98901800
H           4.07805900      3.01771600      0.20944400
H           3.55033500      2.31585200      1.73306700
H           5.54665500     -0.20151700     -1.18098300
H           3.97812800      0.48553200     -1.70435600
H           5.38917700      1.54024300     -1.49287100
H           2.55939300      2.85773200     -1.62173000
