14
b3lypvdz=-158.33385407473 
C           1.38472300      1.02214400      0.74919900
C          -0.06087200      0.97595200      0.23412300
C          -0.86421400     -0.25844600      0.67729200
C          -0.28739500     -1.60776600      0.22835700
H           1.99353600      0.19892500      0.34018100
H           1.87661600      1.96527000      0.45705800
H           1.42030400      0.95241400      1.85122900
H          -0.59370300      1.88017300      0.58149600
H          -0.05654600      1.02858000     -0.87152700
H          -1.89331600     -0.16311100      0.28508200
H          -0.95329200     -0.25355200      1.78017500
H           0.69024600     -1.81290600      0.69589600
H          -0.15314200     -1.64411300     -0.86742000
H          -0.96324600     -2.43276400      0.50985900
