15
b3lypvdz=-233.519802876369 
C           1.38379300      0.94994700      0.70679400
C          -0.08586200      0.94880700      0.26194000
C           2.08256800     -0.36020600      0.31997200
C           2.12734300      2.17417500      0.16544100
O           2.15274900      2.10154700     -1.25710000
H           1.41600800      1.04489600      1.81000400
H          -0.62680900      0.08733200      0.68574600
H          -0.60654600      1.86450800      0.59073300
H          -0.15616600      0.89788000     -0.83674400
H           3.11884500     -0.39131000      0.69723600
H           1.54806700     -1.22875800      0.73807800
H           2.11757400     -0.46778500     -0.77584500
H           3.15550500      2.19590300      0.58304600
H           1.61386000      3.09530700      0.51280700
H           2.62507000      2.87885600     -1.58590800
