23
b3lypvdz=-276.184851034759 
C           1.37049100      0.92642500      0.69192600
C          -0.08026800      1.00684400      0.18734000
C           2.08155800     -0.39052900      0.27171000
C           2.13447500      2.18909400      0.25670000
C           3.54322600     -0.42943900      0.77954900
C           1.29360700     -1.63558300      0.71211900
C           4.29195400     -1.74837000      0.55454200
H           1.33668900      0.92931000      1.80042700
H          -0.72332700      0.22663900      0.62072200
H          -0.52518900      1.97990600      0.45516500
H          -0.13018100      0.91055000     -0.91286400
H           2.11680000     -0.40069000     -0.83769800
H           3.11775100      2.27790900      0.74229600
H           2.29596400      2.20590400     -0.83651400
H           1.55935600      3.09269400      0.51982900
H           4.10826200      0.37829600      0.28635900
H           3.55629700     -0.18980500      1.86104500
H           0.28370500     -1.65477900      0.27723400
H           1.79492100     -2.55955000      0.38795900
H           1.18915900     -1.68004500      1.81145700
H           4.24277400     -2.06968500     -0.50099600
H           5.35649600     -1.64173400      0.82142400
H           3.88468000     -2.56756500      1.16776800
