20
b3lypvdz=-236.900615789498 
C          -0.95294900     -0.18255900      0.68924500
C          -2.26942700      0.06511400     -0.07163300
C          -0.22144000     -1.50262200      0.41763000
C          -3.54808700     -0.63077000      0.44528100
C          -4.79782300      0.01351300     -0.17337200
C          -3.58225500     -2.14652500      0.20323800
H          -0.26324400      0.64150400      0.43232300
H          -1.14092600     -0.07823900      1.77487300
H          -2.46079500      1.15315400     -0.03444000
H          -2.13167400     -0.18006600     -1.14343300
H           0.73277900     -1.53741800      0.96732000
H           0.00909900     -1.61722700     -0.65581600
H          -0.80377000     -2.38482400      0.72184100
H          -3.59187600     -0.45660900      1.53923700
H          -5.71596600     -0.45822000      0.21466500
H          -4.85402100      1.09253100      0.04723200
H          -4.80776100     -0.10493000     -1.27234200
H          -2.79609800     -2.68436800      0.74979400
H          -4.54882100     -2.57090500      0.52326500
H          -3.45824200     -2.37903300     -0.87010700
