23
b3lypvdz=-276.186503757721 
C           2.10534500     -0.43870000      0.27291500
C           3.54942000     -0.43951400      0.81804800
C          -0.22650400     -1.49313700      0.30163100
C           4.33914600      0.79903100      0.33339200
C           1.25432200     -1.65658100      0.65767200
C           4.29733700     -1.75579700      0.55288000
C           4.78422300      0.78262200     -1.13569700
H           1.60448700      0.47519700      0.64507800
H           2.11861200     -0.34604300     -0.83040500
H           3.47111400     -0.33558100      1.91835200
H          -0.67126400     -0.63035600      0.82616400
H          -0.36512300     -1.32749600     -0.78121300
H          -0.81197700     -2.38500300      0.58079300
H           3.71796500      1.69560200      0.51739800
H           5.23337700      0.91786800      0.97123700
H           1.65188200     -2.55781400      0.15890500
H           1.35063800     -1.84561900      1.74382900
H           4.30483700     -2.02107400     -0.51858700
H           5.34601900     -1.68767900      0.88835300
H           3.83568200     -2.59487700      1.09613700
H           5.50004400     -0.03081500     -1.33884800
H           3.93428800      0.65385600     -1.82622700
H           5.28582800      1.72730900     -1.40460800
