21
b3lypvdz=-312.095287464392 
C           1.30278700      1.00419800      0.67751300
C          -0.15015100      0.95141500      0.16230700
C           2.14221700      2.18059600      0.18045000
C          -0.86055400     -0.28708400      0.73184300
C          -0.93951300      2.23252200      0.47045300
C           3.58743400      2.11609900      0.68030200
O           2.09712600      2.14618600     -1.25021200
H           1.81202000      0.06969600      0.37607000
H           1.29821900      1.02299500      1.78379500
H          -0.10706800      0.84252300     -0.93529100
H           1.68682000      3.12537800      0.54481500
H          -1.87982700     -0.38432400      0.32193100
H          -0.31071100     -1.21146400      0.48370000
H          -0.94485500     -0.23210800      1.83270600
H          -1.98889100      2.13551400      0.14373500
H          -0.94388600      2.45231600      1.55401700
H          -0.51691200      3.10457200     -0.05371900
H           4.07739900      1.19720800      0.31700400
H           4.17092100      2.97431300      0.30212100
H           3.63866100      2.13294500      1.78228900
H           2.60646600      2.90200600     -1.57612900
