17
b3lypvdz=-197.618210029441 
C           2.10654300     -0.40385800      0.37563200
C           3.54797700     -0.47491800      0.92790500
C           3.58975500     -0.37352100      2.46089500
C           1.20900200     -1.61104300      0.67821900
C           4.30636100     -1.72268600      0.44508000
H           1.62546000      0.50858000      0.77361500
H           2.15578300     -0.26697300     -0.72095200
H           4.07885200      0.40954200      0.52717500
H           3.13882900     -1.25803200      2.94175800
H           4.62943500     -0.29817100      2.82160000
H           3.04556200      0.51601400      2.82201200
H           0.19973800     -1.45067200      0.26440900
H           1.60399500     -2.53590800      0.22664000
H           1.09799100     -1.78516600      1.76187400
H           4.26802600     -1.82178100     -0.65383700
H           5.36842000     -1.67602900      0.74048600
H           3.88637100     -2.64437900      0.88239000
