20
b3lypvdz=-236.90155082422 
C           2.19850100      2.25355900      0.27614900
C           3.55699500     -0.48864900      0.66656000
C           4.34284600      0.76829100      0.22801300
C           3.66555700      2.08048000      0.68811700
C           4.41734700     -1.75259200      0.76080800
C           4.62405600      0.77662700     -1.28343300
H           1.56437400      1.44782800      0.68019500
H           2.07248500      2.26181800     -0.81967600
H           1.79446000      3.20326600      0.66342500
H           2.72101300     -0.66661800     -0.03364500
H           3.09059300     -0.30382700      1.65134800
H           5.32112000      0.72842800      0.74320200
H           4.25594200      2.93342000      0.30793000
H           3.73429400      2.13492700      1.79088200
H           4.88606300     -2.01166900     -0.20352500
H           5.23270900     -1.61846900      1.49244500
H           3.82022700     -2.62225700      1.08152700
H           5.15012000     -0.13630800     -1.60706400
H           3.68950000      0.84377500     -1.86538900
H           5.25919700      1.63157300     -1.56966900
