21
b3lypvdz=-312.087775561763 
C           2.09069400     -0.43723100      0.32544700
C           3.52946800     -0.45679900      0.87372200
C          -0.22066000     -1.52994700      0.22898300
C           1.23386200     -1.65783000      0.68720400
C           4.38961600     -1.67956600      0.51234300
C           4.70124600     -1.82661900     -0.98085000
O          -0.35782200     -1.37271900     -1.18008200
H           1.58949200      0.46754700      0.71815600
H           2.08934500     -0.32277900     -0.77195600
H           4.04772400      0.45371500      0.51754800
H           3.49172100     -0.37063300      1.97620300
H          -0.67293100     -0.62196300      0.66416700
H          -0.81438900     -2.39263800      0.59696800
H           1.66207500     -2.57256900      0.23249000
H           1.24854600     -1.82731900      1.78111400
H           5.33930800     -1.60713100      1.07128200
H           3.90074900     -2.60075000      0.87991700
H           5.20006000     -0.92321400     -1.37406900
H           3.78925400     -1.98687900     -1.58002700
H           5.37248700     -2.68154100     -1.16753100
H           0.02875300     -2.15833600     -1.59542900
