21
b3lypvdz=-312.083327124982 
C          -0.96016300     -0.25704100      0.71888700
C          -2.29862200      0.04463800     -0.00518500
C          -0.25397000     -1.50787300      0.18407400
C          -3.58858200     -0.60861200      0.52599400
C          -1.07767500     -0.29850300      2.24656300
C          -3.65739600     -2.13640500      0.46969800
O           0.07213500     -1.27358700     -1.18362800
H          -0.27922800      0.57330000      0.45557600
H          -2.45651800      1.13829600      0.02940800
H          -2.16483200     -0.20773600     -1.07164100
H           0.66373800     -1.69033700      0.78058000
H          -0.89935400     -2.40051400      0.29249100
H          -4.42766400     -0.19822900     -0.06400100
H          -3.77213600     -0.27609400      1.56360200
H          -1.48551100      0.64659300      2.64172900
H          -1.73748800     -1.10964700      2.59591100
H          -0.09068100     -0.45584100      2.71318600
H          -2.92487700     -2.61247200      1.14033900
H          -4.65370100     -2.49587700      0.77789700
H          -3.46697000     -2.51312300     -0.54982400
H           0.47749700     -2.07663500     -1.53815500
