15
b3lypvdz=-233.518786862876 
C           2.16686500      2.19260000      0.18635300
C           4.37372900      0.83993000      0.34797600
C           3.62005900      2.14476800      0.66405900
C           4.79120300      0.67848500     -1.11917500
O           2.00928500      2.14410500     -1.23017800
H           1.62208600      1.31038900      0.56561500
H           1.66107600      3.08441700      0.61236000
H           3.74159700     -0.01613600      0.65364500
H           5.27505900      0.79086200      0.98433700
H           4.17019400      3.00470700      0.22988400
H           3.61846500      2.31027000      1.75777500
H           5.38781300     -0.23758100     -1.26682800
H           3.91491900      0.63985000     -1.78177400
H           5.41605300      1.53095300     -1.44343800
H           2.48309800      2.90617900     -1.59681100
