17
b3lypvdz=-197.619135315608 
C           0.03350000      0.86216100      0.23262400
C          -1.07872100     -0.08557000      0.68486100
C          -2.43275200      0.22025200      0.03399500
C          -3.61182700     -0.62443900      0.53866400
C          -3.45805500     -2.13486400      0.33328300
H           0.99341800      0.61885600      0.71661600
H          -0.20822200      1.91151100      0.47864600
H           0.18682500      0.80753100     -0.85959900
H          -0.78214100     -1.12512800      0.45472000
H          -1.18333500     -0.03518100      1.78600100
H          -2.66981700      1.28869200      0.20028800
H          -2.34054500      0.09720400     -1.06368400
H          -4.52720900     -0.28048400      0.02481000
H          -3.77239700     -0.41489000      1.61329800
H          -2.61389100     -2.54767700      0.90948800
H          -4.36287300     -2.67721900      0.65409500
H          -3.28225600     -2.38105600     -0.72920600
