15
b3lypvdz=-233.519172999255 
C          -0.15062400      0.97120600      0.23154600
C          -0.89916300     -0.28797300      0.68429400
C          -0.24233300     -1.58382100      0.22784000
C          -0.92945900      2.26475700      0.48651500
O          -0.27414600     -1.60573000     -1.19813200
H           0.82657300      1.01831400      0.74765700
H           0.06798500      0.87477600     -0.84488300
H          -1.92802900     -0.27030700      0.27986400
H          -0.98526600     -0.30380500      1.78679200
H           0.80162100     -1.63032400      0.60482700
H          -0.78702200     -2.45088800      0.65436100
H          -1.89046400      2.26137900     -0.05607900
H          -1.15517900      2.40035000      1.55897000
H          -0.36191200      3.14741700      0.14808700
H           0.17591900     -2.40975100     -1.49276000
