15
b3lypvdz=-233.519292657684 
C           1.33206900      0.99219600      0.70718500
C          -0.14462600      1.01455400      0.29543100
C           2.12971500      2.16664800      0.15527000
C          -0.89587500     -0.25393100      0.70092400
O           2.17883000      2.03473100     -1.26235500
H           1.80517300      0.06094400      0.34528300
H           1.42247900      0.98354400      1.80954500
H          -0.63271400      1.89921700      0.74611100
H          -0.19861100      1.15686100     -0.79751900
H           3.14831600      2.16592200      0.59325000
H           1.64662000      3.12128200      0.45467500
H          -1.94864300     -0.22493500      0.37497300
H          -0.43483900     -1.14880500      0.24897400
H          -0.88701100     -0.39707400      1.79602300
H           2.68331700      2.78034800     -1.61567000
