20
b3lypvdz=-236.902640562122 
C           2.15404300      2.35394600      0.30445000
C           3.53379600     -0.43175200      0.65466100
C           4.26543700      0.85875200      0.25354500
C           3.61065500      2.16167300      0.73917300
C           4.37582600     -1.70727500      0.48652500
C           4.76826300     -2.03018700     -0.95878200
H           1.49545700      1.57194200      0.71675100
H           2.05057800      2.32392100     -0.79480500
H           1.75922700      3.32356000      0.65013800
H           2.60011200     -0.53134200      0.07163000
H           3.22086800     -0.35393600      1.71313600
H           4.37407000      0.89383500     -0.84589700
H           5.29446200      0.81997300      0.65830200
H           4.21385300      3.01152900      0.37157500
H           3.67172400      2.20655700      1.84338000
H           5.29028500     -1.61629200      1.10225100
H           3.81494000     -2.56014400      0.90965100
H           5.39249000     -1.23785200     -1.40512200
H           3.87669400     -2.14611800     -1.59939500
H           5.34542100     -2.96788900     -1.01856600
