14
b3lypvdz=-158.335317873857 
C           1.40053000      1.03520200      0.66799200
C          -0.06497300      0.79699500      0.29678200
C          -2.42791600      1.77577900      0.16995800
C          -0.96237900      2.01571400      0.54020600
H           2.02471900      0.15259000      0.45030100
H           1.82326800      1.88537300      0.10601400
H           1.51130600      1.26582500      1.74234800
H          -0.46014700     -0.06202800      0.87039100
H          -0.13311700      0.50392800     -0.76814900
H          -2.85647100      0.93700100      0.74443500
H          -2.53484800      1.52574200     -0.90053800
H          -3.04938800      2.66476400      0.36862100
H          -0.89183900      2.31254300      1.60384700
H          -0.56984300      2.87337300     -0.03740800
