17
b3lypvdz=-197.619513822093 
C           1.33832900      0.94861400      0.70873100
C          -0.10476800      1.02734900      0.18811500
C           2.04198300     -0.37644800      0.35293300
C           2.15991400      2.14479100      0.20439900
C           1.29211700     -1.65643300      0.74633900
H           1.30028400      1.01440300      1.81461400
H          -0.75208600      0.26427000      0.64832100
H          -0.54757000      2.01194100      0.41698800
H          -0.14402000      0.88897200     -0.90815400
H           3.03227800     -0.37850800      0.84309200
H           2.24003300     -0.39774900     -0.73616400
H           3.19102400      2.11713200      0.59543600
H           2.21822900      2.14942900     -0.89904500
H           1.70834300      3.10022100      0.52043000
H           0.36951200     -1.78893600      0.15885800
H           1.92316200     -2.54381400      0.56918500
H           1.01343500     -1.65103500      1.81492100
