17
b3lypvdz=-197.619669992217 
C           1.41153100      0.98985700      0.74422500
C           2.06451600     -0.33453300      0.32117300
C           3.49065500     -0.44571700      0.88319900
C          -0.22007100     -1.57956000      0.22790000
C           1.23763400     -1.57745000      0.70886600
H           0.45340500      1.15937800      0.22738600
H           2.06931600      1.84179200      0.50099200
H           1.21941800      1.01526700      1.83248200
H           2.14173700     -0.32422400     -0.78462200
H           4.12079600      0.39487900      0.54663600
H           3.48505800     -0.43903000      1.98860900
H           3.97739000     -1.38007700      0.55532900
H          -0.81536600     -0.79129000      0.71582600
H          -0.28545600     -1.42538300     -0.86400400
H          -0.70568100     -2.54293000      0.45839000
H           1.74832700     -2.46866000      0.30021400
H           1.25589200     -1.69391600      1.81019800
