17
b3lypvdz=-197.620721213496 
C          -0.72765400     -0.07756200      0.55455600
C          -2.12574000      0.22415700      0.00529100
C          -0.22678700     -1.49076600      0.24134900
C           1.17602100     -1.76447700      0.78872000
C          -2.60087200      1.64058300      0.33485500
H          -0.00988600      0.66470200      0.15474900
H          -0.72533900      0.07254600      1.65279700
H          -2.84687600     -0.51178900      0.40799100
H          -2.12702500      0.07106100     -1.09105500
H          -0.23960000     -1.64441600     -0.85478600
H          -0.93759800     -2.23224100      0.65196000
H           1.91125800     -1.04611800      0.38750500
H           1.52763200     -2.77566300      0.52545200
H           1.20143800     -1.67551600      1.88942900
H          -1.90819300      2.40116600     -0.06452900
H          -3.59762300      1.84925900     -0.08702400
H          -2.65815500      1.79437300      1.42664000
