23
b3lypvdz=-276.186775306457 
C           2.15767700     -0.38084900      0.36326100
C          -1.00875700     -0.27535800      0.76386500
C           3.61661100     -0.47791300      0.85076900
C          -0.19166900     -1.48011700      0.26802200
C          -1.23990900     -0.25211600      2.27968600
C           1.26958600     -1.57168700      0.75304800
C           4.36560800     -1.74073100      0.40425900
H           1.72641600      0.55249600      0.76630600
H           2.15164800     -0.27260800     -0.73925500
H          -0.52874400      0.66739000      0.44573700
H          -1.98943200     -0.29511400      0.25562200
H           4.16447100      0.41046700      0.48721400
H           3.63604300     -0.41763000      1.95574300
H          -0.19555000     -1.47826800     -0.83885500
H          -0.71758500     -2.40521200      0.57045500
H          -1.89676200      0.58519200      2.56843200
H          -1.72285900     -1.18463300      2.62132900
H          -0.29573800     -0.13996000      2.83835900
H           1.69939300     -2.49418100      0.32595400
H           1.29557300     -1.70611000      1.85137100
H           4.32747100     -1.86418800     -0.69291900
H           5.42705900     -1.69283600      0.70045000
H           3.94175000     -2.65023300      0.85994900
