23
b3lypvdz=-276.189350500707 
C           1.30114700      0.87062600      0.68130100
C          -0.11854700      1.13013200      0.16711500
C           2.29582700      1.97384600      0.31650800
C          -1.13055400      0.05791900      0.58379500
C          -2.51604000      0.24821100     -0.04355500
C          -3.61984400     -0.66896200      0.50538000
C          -3.30368400     -2.16691300      0.44900300
H           1.65760600     -0.09614900      0.27873400
H           1.27529000      0.74739700      1.78061000
H          -0.46596800      2.11744700      0.52935500
H          -0.09697900      1.20668200     -0.93771600
H           3.30165200      1.75788900      0.71257100
H           2.38345100      2.09246700     -0.77747400
H           1.97849100      2.94812300      0.72787600
H          -0.73418800     -0.93583000      0.30434500
H          -1.21754100      0.05053100      1.68801100
H          -2.83227900      1.29911900      0.09845800
H          -2.43222700      0.10161000     -1.13847500
H          -4.54667600     -0.46976000     -0.06202600
H          -3.83958900     -0.38479000      1.55162800
H          -2.45511500     -2.43063600      1.10162600
H          -4.16534200     -2.76924200      0.78124000
H          -3.04519000     -2.49021700     -0.57511300
