23
b3lypvdz=-276.186747415922 
C           1.30300700      0.92678600      0.67383800
C          -0.15537500      0.94540600      0.18004500
C           2.17060800      2.08601100      0.16461500
C           4.49077100      0.88478300      0.38248400
C          -0.93141200      2.22828000      0.49937900
C           3.61377600      2.10702500      0.69975300
C           4.79136000      0.68503600     -1.10599300
H           1.75524100     -0.03419800      0.36981200
H           1.30970100      0.92974700      1.78163900
H          -0.68342600      0.08550300      0.62952800
H          -0.17476200      0.77287600     -0.91288500
H           2.17433300      2.08104400     -0.94164900
H           1.70026000      3.04077600      0.45839300
H           4.02020600     -0.02904200      0.78958000
H           5.44255300      0.99694700      0.93103000
H          -1.99128500      2.13296000      0.21052200
H          -0.89769600      2.46257000      1.57852700
H          -0.52508300      3.09980500     -0.03877000
H           4.11599900      3.00676000      0.29573400
H           3.58357000      2.24731800      1.79644000
H           5.47148900     -0.16737400     -1.26866700
H           3.87700600      0.49057300     -1.69080400
H           5.27455700      1.57960800     -1.53765000
