18
b3lypvdz=-272.809007059578 
C          -0.91566000     -0.20594800      0.75543500
C          -2.26510000      0.04153300      0.06156600
C          -0.23881000     -1.48626700      0.23835700
C          -1.09350100     -0.24695000      2.28115000
C           1.21965300     -1.62932100      0.68585000
O          -0.30647600     -1.44704000     -1.19251300
H          -0.24717100      0.64036900      0.50116700
H          -2.96122800     -0.79988600      0.23101200
H          -2.74122300      0.95399500      0.45974300
H          -2.13979800      0.16074100     -1.02359000
H          -0.82216700     -2.35764900      0.61260400
H          -1.56233700      0.68316000      2.64298500
H          -1.75101000     -1.08246900      2.58163800
H          -0.13603500     -0.36268100      2.81392500
H           1.81496800     -0.77378200      0.32385200
H           1.66600900     -2.54473500      0.25856300
H           1.32127600     -1.69168100      1.78157800
H           0.08650900     -2.26678800     -1.52352200
