21
b3lypvdz=-312.087531075358 
C           1.30673700      0.97238300      0.73376100
C          -0.11972600      0.94651100      0.16492100
C           2.03079800     -0.35363800      0.41123600
C           2.07859600      2.20627100      0.24766400
C           3.49615000     -0.46729300      0.85674900
C           3.71402800     -0.40235400      2.37006100
O           2.39081400      2.04475500     -1.13258400
H           1.23661000      1.08257700      1.83252700
H          -0.67178800      0.06060900      0.51929000
H          -0.69200800      1.83935500      0.46878800
H          -0.09609900      0.91806400     -0.93705500
H           1.45096300     -1.17563200      0.87061600
H           1.98235900     -0.50921400     -0.67975500
H           2.99934800      2.33567800      0.85075800
H           1.45423600      3.10871000      0.41608500
H           4.09459200      0.31382400      0.35639900
H           3.89626500     -1.42415500      0.47674200
H           3.10147300     -1.15387100      2.89715700
H           4.76795900     -0.59155200      2.63280100
H           3.44505800      0.58335000      2.78604900
H           2.85723500      2.83802100     -1.43021000
