23
b3lypvdz=-276.188950047792 
C          -0.95297000     -0.21860800      0.75657100
C          -2.25945600      0.27002600      0.09186500
C          -0.51609400     -1.59784600      0.23993600
C          -3.54506600     -0.48717300      0.45064800
C          -4.75957000     -0.00418200     -0.34973500
C          -6.06029700     -0.73550700     -0.01095700
C          -1.01792700     -0.20279600      2.29063000
H          -0.17076000      0.50384600      0.45392800
H          -2.40243800      1.34010600      0.33529500
H          -2.12018700      0.22441800     -1.00553400
H           0.44755000     -1.89840900      0.68399300
H          -0.39616800     -1.59399500     -0.85660900
H          -1.25030600     -2.38085600      0.49543100
H          -3.41122900     -1.57107800      0.27292600
H          -3.75780000     -0.37400100      1.53044100
H          -4.89345500      1.08140500     -0.17938200
H          -4.54677000     -0.12027400     -1.42985600
H          -6.90408700     -0.34835500     -0.60456800
H          -5.98113100     -1.81791900     -0.21580900
H          -6.31980900     -0.61809500      1.05583600
H          -1.31056100      0.78763900      2.67979600
H          -1.74495300     -0.93682200      2.67661900
H          -0.03781800     -0.45982500      2.72703600
