21
b3lypvdz=-274.993870081052 
C           2.11017100     -0.39561800      0.33150400
C           3.56134900     -0.41198200      0.84576600
C           4.37005300      0.81637600      0.36890400
C           5.53689500     -0.57394300     -1.40695800
C           4.29343900     -1.72379500      0.48294400
C           4.79099700      0.73572800     -1.10862200
C           4.70870600     -1.80088400     -0.99645200
H           1.59398600      0.52883100      0.64288900
H           1.53979200     -1.24583900      0.74208400
H           2.04838300     -0.45641100     -0.76851700
H           3.50828100     -0.35914900      1.94880900
H           3.78867300      1.73814800      0.55070300
H           5.28313200      0.90118800      0.98790500
H           5.79698300     -0.62977600     -2.47851900
H           6.49274400     -0.58056800     -0.84934300
H           5.20351000     -1.80695200      1.10635700
H           3.65904000     -2.58878800      0.74785000
H           3.90187200      0.81147100     -1.76105600
H           5.43091000      1.59966700     -1.36102200
H           3.81274400     -1.87294600     -1.63960500
H           5.28904200     -2.72365700     -1.17282200
