23
b3lypvdz=-276.186996233139 
C           1.37888200      1.01312100      0.59408000
C           2.04076400     -0.33230500      0.26173400
C           3.48105900     -0.42997700      0.80976300
C          -0.21714100     -1.64265500      0.29192100
C           4.46343100      0.69014700      0.43514700
C           1.23298600     -1.54241300      0.77635600
C           4.74888200      0.82922700     -1.06279100
H           0.35981200      1.07547400      0.18075600
H           1.94632900      1.85567700      0.16825300
H           1.31135000      1.17353700      1.68550900
H           2.08313200     -0.41358600     -0.84243400
H           3.42662100     -0.49202500      1.91376900
H           3.90620600     -1.39646700      0.47576100
H          -0.83883400     -0.81045100      0.66059100
H          -0.28031900     -1.63980500     -0.81076900
H          -0.68484000     -2.57493800      0.64946200
H           4.09069300      1.65438300      0.82647400
H           5.41107900      0.50024800      0.96985000
H           1.77482100     -2.45964400      0.47950400
H           1.24836300     -1.53231200      1.88387800
H           5.13010100     -0.11624400     -1.48745400
H           3.84537000      1.10594700     -1.63173700
H           5.50595100      1.60706000     -1.25632400
