18
b3lypvdz=-272.804525298289 
C           2.15636900      2.28858400      0.13387200
C           3.62576800     -0.46707100      0.90946900
C           4.25280300      0.79992400      0.31623500
C           3.55973000      2.10818900      0.72108200
C           4.34614100     -1.75112500      0.49253300
O           2.13805000      2.22517700     -1.28900700
H           1.48763100      1.47456700      0.46207400
H           1.71005000      3.23112000      0.51233600
H           2.56561300     -0.53596800      0.60421400
H           3.62668500     -0.38966500      2.01402200
H           4.24757200      0.72744900     -0.78567400
H           5.31241600      0.85103200      0.62899300
H           4.18005000      2.96370500      0.38625400
H           3.50620200      2.19471400      1.82312600
H           4.30851300     -1.89021100     -0.60214100
H           5.40997000     -1.73224900      0.78836500
H           3.89133800     -2.63996000      0.95873900
H           2.70690100      2.93958700     -1.61499400
