21
b3lypvdz=-312.091892483492 
C           1.37962500      0.92139700      0.71595300
C          -0.08657000      1.02376600      0.26752900
C           2.04389300     -0.42013700      0.33629700
C           2.17241000      2.12951800      0.16934700
C           1.24030000     -1.67793600      0.68215100
C           3.61505600      2.23865600      0.66713100
O           2.13681000      2.03196800     -1.25984500
H           1.40221600      1.01308800      1.82011400
H          -0.71438900      0.25438200      0.74113100
H          -0.50685200      2.00605300      0.54433800
H          -0.17213300      0.92384200     -0.82623600
H           3.02137900     -0.47945900      0.84507700
H           2.25820100     -0.40578900     -0.74569600
H           1.62654400      3.04124900      0.49548100
H           0.32311200     -1.76269200      0.07815100
H           1.84213800     -2.58210600      0.49085600
H           0.93780300     -1.69772000      1.74417600
H           4.22146700      1.38875800      0.31753400
H           4.08187500      3.16276000      0.28434400
H           3.66321600      2.27541200      1.76865400
H           2.60939800      2.79549200     -1.62118500
