12
b3lypvdz=-194.233323827796 
O          -0.26145600     -1.49857700     -1.20285800
C          -0.94823000     -0.29399800      0.73622500
C          -1.05938200     -0.26355900      2.26056800
C          -0.27724500     -1.55922900      0.21722700
H           0.19968200     -2.28380200     -1.52898100
H          -0.37574100      0.57740000      0.37308800
H          -1.94850100     -0.22156400      0.27436800
H          -1.54925100      0.65967600      2.60895600
H          -1.65296500     -1.11164900      2.64320900
H          -0.06647500     -0.31347900      2.74043900
H           0.75152800     -1.63089600      0.63082200
H          -0.83346400     -2.44872400      0.58383800
