17
b3lypvdz=-197.620679785322 
C           1.35597900      0.93845800      0.64660400
C          -0.11730300      0.77490700      0.25717500
C           2.19730700     -0.30548100      0.35715100
C          -0.97746300      2.00710500      0.55487600
C          -2.44740200      1.82906000      0.16702100
H           1.78107100      1.80735300      0.11085200
H           1.42435200      1.18836400      1.72245400
H          -0.53931500     -0.10033100      0.78741000
H          -0.18645000      0.53124300     -0.82138600
H           3.24275600     -0.17530800      0.68174800
H           1.79413000     -1.18899000      0.88124100
H           2.20704100     -0.54115600     -0.72143400
H          -0.90378200      2.24775800      1.63220000
H          -0.55655600      2.88080800      0.02345300
H          -2.89889000      0.96887200      0.68995800
H          -2.55673200      1.64692900     -0.91667200
H          -3.04704200      2.71970900      0.41794800
