20
b3lypvdz=-236.902734823609 
C           1.39359900      0.99029800      0.63436200
C           2.05983000     -0.35072300      0.26603400
C           2.20165600      2.25025800      0.30274400
C           3.49646300     -0.46708600      0.79918500
C          -0.22380000     -1.61976600      0.27530300
C           1.23275500     -1.56123900      0.74863300
H           0.42191000      1.04786200      0.11516700
H           1.15922700      0.98787400      1.71731100
H           2.10746000     -0.39938000     -0.84156600
H           3.10600300      2.34171900      0.92527800
H           2.52732200      2.26053700     -0.75276500
H           1.59545200      3.15604500      0.47201700
H           4.16970000      0.28292300      0.35586000
H           3.52700200     -0.33518200      1.89670700
H           3.91919000     -1.46103200      0.57332100
H          -0.82644500     -0.78597400      0.67072700
H          -0.29579400     -1.58565800     -0.82653500
H          -0.70692600     -2.55248400      0.61067300
H           1.75347600     -2.47851800      0.41723500
H           1.25932000     -1.58667500      1.85580900
