17
b3lypvdz=-197.620542424331 
C           1.38644800      0.82656300      0.77294900
C          -0.00916200      1.04213700      0.18390600
C          -1.05551400      0.02693100      0.65640200
C          -2.43359400      0.24597300      0.02515800
C          -3.50824900     -0.73241800      0.49987400
H           1.75677000     -0.19147800      0.55824700
H           2.11565700      1.53847600      0.35354100
H           1.38961800      0.95605600      1.86984900
H          -0.36149100      2.06166600      0.43206400
H           0.04965200      1.00390300     -0.92054900
H          -0.70482100     -0.99662200      0.41667800
H          -1.14144700      0.06863700      1.76005200
H          -2.76174700      1.28265800      0.23250600
H          -2.33787500      0.17212100     -1.07520600
H          -4.46856700     -0.54716400     -0.00872100
H          -3.22087000     -1.77917600      0.29482300
H          -3.68300800     -0.64386500      1.58652600
