18
b3lypvdz=-272.805566128075 
C           2.06460400     -0.35897400      0.36276600
C           3.52956100     -0.43359000      0.80156700
C          -0.19191900     -1.54648200      0.20950500
C           4.34081100      0.79288200      0.37940800
C           1.22474100     -1.56807100      0.78145500
O          -0.21539300     -1.57768000     -1.21357400
H           1.60344800      0.55827000      0.77841400
H           2.00516800     -0.25239300     -0.73553600
H           3.58093900     -0.55204500      1.90092900
H           3.98926000     -1.34721300      0.37972400
H          -0.69674600     -0.60352900      0.48375500
H          -0.79417700     -2.36992100      0.64499700
H           3.90398200      1.71924400      0.79080000
H           4.36045500      0.89919700     -0.71927100
H           5.38353500      0.73360800      0.73155400
H           1.72272900     -2.50194600      0.44855200
H           1.16998700     -1.63570100      1.88458100
H           0.21831500     -2.40035400     -1.48832400
