20
b3lypvdz=-236.903709167535 
C           1.34509900      0.93777700      0.58086200
C           2.07254900     -0.38149600      0.28148800
C           3.50932900     -0.40826500      0.84259200
C           4.44844100      0.73072000      0.41840800
C           1.28509900     -1.58414900      0.82058300
C           4.73624400      0.80061400     -1.08439800
H           0.30424900      0.90655300      0.21683500
H           1.83313700      1.79729700      0.09376300
H           1.31533200      1.14193400      1.66663000
H           2.12594300     -0.48809500     -0.81887800
H           3.44931600     -0.42445500      1.94805300
H           3.97098000     -1.37194200      0.55079400
H           4.03152700      1.69718800      0.75684300
H           5.40024900      0.61049600      0.96521000
H           0.27030100     -1.62906900      0.39193300
H           1.79345300     -2.53376400      0.58076800
H           1.18215500     -1.53203600      1.91987100
H           5.14802600     -0.15419000     -1.45723700
H           3.82688200      1.01766700     -1.66955700
H           5.47018700      1.58931500     -1.31776200
