23
b3lypvdz=-276.187718778638 
C           2.14366400     -0.60227100      0.62226100
C          -0.89702400      0.07836700      0.39865700
C          -2.31763000      0.32966600     -0.13527400
C          -0.28906500     -1.27989800      0.01190600
C          -3.39199400     -0.60831500      0.43007000
C          -4.80779500     -0.27178400     -0.04490700
C           1.01797200     -1.63353800      0.74040100
H           1.87623200      0.35531700      1.09862500
H           3.06046300     -0.96622700      1.11487200
H           2.39354300     -0.38873200     -0.43167200
H          -0.23867000      0.88683500      0.03534900
H          -0.90917900      0.17343000      1.50259800
H          -2.60119400      1.37151400      0.10621100
H          -2.31655100      0.26331600     -1.24088100
H          -0.12453900     -1.30390300     -1.08314500
H          -1.01452200     -2.08413700      0.22468100
H          -3.16163600     -1.65293600      0.15486700
H          -3.35591300     -0.56747900      1.53563300
H          -5.55405400     -0.94310500      0.40973200
H          -5.08582300      0.76278400      0.22216400
H          -4.89848000     -0.36731500     -1.14122800
H           1.37859500     -2.60369800      0.35397900
H           0.79329600     -1.79949200      1.81110200
