20
b3lypvdz=-236.904876821618 
C          -0.83851600     -0.09373900      0.60511700
C          -2.20004300      0.27228700     -0.01525300
C          -0.34303900     -1.51835300      0.32921900
C          -3.33626900     -0.67527700      0.39570600
C           1.10880100     -1.73624300      0.76076200
C          -2.56060000      1.72497700      0.32170200
H          -0.08676800      0.62613800      0.22998700
H          -0.88182700      0.06890700      1.70136500
H          -2.08686200      0.18928200     -1.11501600
H          -0.44598500     -1.73827700     -0.75067200
H          -0.99018800     -2.24788600      0.84683000
H          -4.28298200     -0.37401000     -0.08313200
H          -3.13917500     -1.71821700      0.09967000
H          -3.49602400     -0.66007900      1.48925500
H           1.79249600     -1.05981600      0.22067100
H           1.44186800     -2.76809700      0.56075100
H           1.24263800     -1.54209600      1.83970900
H          -1.78706500      2.43059000     -0.02399600
H          -3.51616700      2.02477700     -0.14003600
H          -2.66199600      1.85703100      1.41426200
