21
b3lypvdz=-274.985774916188 
C          -0.07330700      0.95560900      0.30176700
C          -0.98434200     -0.21218200      0.73766800
C          -2.32532100      0.16477100      0.05051600
C          -3.57717200     -0.58922300      0.49733500
C          -1.05557700     -0.35349000      2.26372400
C          -0.96835600      2.21497500      0.39468800
C          -2.42382600      1.70530700      0.20835800
H           0.84327200      1.03943600      0.90703600
H           0.24612800      0.79518000     -0.74251700
H          -0.61353800     -1.16710500      0.32549200
H          -2.17771300     -0.05042400     -1.02463100
H          -4.45517900     -0.25973500     -0.08297700
H          -3.47656100     -1.67811100      0.34739000
H          -3.80483100     -0.41335500      1.56249000
H          -1.38780400      0.57752500      2.75496900
H          -1.74837100     -1.15122200      2.57489700
H          -0.06221800     -0.60240100      2.67287500
H          -0.85350100      2.69513500      1.38081500
H          -0.68741800      2.97566000     -0.34999800
H          -2.91984700      2.16169700     -0.66322300
H          -3.04631600      1.96245000      1.08282300
