23
b3lypvdz=-276.187506562761 
C           1.46874000      0.94722000      0.70690600
C           2.10880700     -0.39310300      0.31539400
C           3.50566600     -0.51811100      0.95551900
C           5.48119900     -0.53430100     -1.46649600
C           1.19278100     -1.57187200      0.67418500
C           4.35304000     -1.72776500      0.52648200
C           4.73664300     -1.77902900     -0.96405400
H           0.48676200      1.08151500      0.22343700
H           2.10843900      1.79547500      0.40871500
H           1.31762900      1.01340300      1.79959700
H           2.22993800     -0.38802800     -0.78502600
H           4.06928400      0.40799600      0.73924200
H           3.38633700     -0.53956000      2.05588400
H           4.82956600      0.35466400     -1.49114400
H           5.86705500     -0.68609000     -2.48826000
H           6.34255700     -0.29359100     -0.81893400
H           0.18390100     -1.43315100      0.25058700
H           1.58140400     -2.52724600      0.28562700
H           1.08578200     -1.67549200      1.76936900
H           5.28179000     -1.72691500      1.12617700
H           3.82787500     -2.66239400      0.79465400
H           3.83475200     -1.93943800     -1.58328500
H           5.37025300     -2.66908700     -1.12827400
