18
b3lypvdz=-272.802134435741 
C           2.14756800      2.10616300      0.21456700
C           4.40447000      0.88004400      0.34967900
C           5.51240300     -0.59337800     -1.41432400
C           3.61702300      2.16826900      0.64675000
C           4.84939900      0.74396200     -1.11105700
O           5.98643200     -0.55064200     -2.75618800
H           1.61704900      1.29588600      0.74384800
H           2.03954600      1.91850900     -0.86758700
H           1.61782500      3.04617500      0.44372600
H           3.78005300      0.01121400      0.63857400
H           5.30016900      0.83465600      0.99516500
H           4.77506900     -1.41110000     -1.26371900
H           6.34173200     -0.77193600     -0.69702700
H           4.11852900      3.01953100      0.14946200
H           3.66307700      2.38053400      1.72969300
H           3.99491000      0.87401400     -1.79836800
H           5.56813300      1.54688800     -1.35682100
H           6.39341300     -1.40529000     -2.95547300
