15
b3lypvdz=-233.520196435635 
C          -0.93962000     -0.22600700      0.72599400
C          -2.30610500      0.04450000      0.08430900
C          -0.33034000     -1.52896300      0.20464200
C          -1.02597500     -0.24925900      2.25552600
O          -0.11992900     -1.39630200     -1.19413400
H          -0.24667700      0.58070600      0.42182900
H          -3.03434100     -0.73434000      0.37286700
H          -2.71353900      1.01490600      0.41258000
H          -2.22787400      0.04331500     -1.01307500
H           0.62169400     -1.73292000      0.73693800
H          -1.01853300     -2.37026300      0.43669100
H          -1.38063100      0.71685000      2.65055700
H          -1.73532900     -1.02026400      2.60363900
H          -0.04773300     -0.46519000      2.71770300
H           0.25843200     -2.22316900     -1.52336600
