17
b3lypvdz=-197.620717612436 
C           0.12461600      0.83848400      0.27095400
C          -1.06867100     -0.02606700      0.67814900
C          -2.37936400      0.33960800     -0.02665800
C          -3.55900200     -0.53923800      0.40067800
C          -4.88610200     -0.18231600     -0.27187900
H           1.03716900      0.53999000      0.81244500
H          -0.05481900      1.90616800      0.48898700
H           0.33487100      0.75232800     -0.80939400
H          -0.83566700     -1.08899700      0.47553800
H          -1.21754600      0.04787900      1.77242000
H          -2.61793100      1.40201500      0.17831200
H          -2.24353900      0.26369400     -1.12365100
H          -3.31398700     -1.59752100      0.18829900
H          -3.67532400     -0.46956400      1.49915200
H          -5.70405600     -0.82567000      0.09087600
H          -5.17034800      0.86464800     -0.06622000
H          -4.83309900     -0.30114100     -1.36860800
