21
b3lypvdz=-312.088326683697 
C           2.08186600     -0.45952900      0.38893500
C           3.53313600     -0.48656900      0.91934700
C          -0.22057300     -1.54617500      0.20731100
C           3.60141900     -0.34069900      2.44808100
C           1.21129200     -1.67742900      0.73206600
C           4.31129200     -1.72948000      0.45526900
O          -0.28716300     -1.40905000     -1.21032300
H           1.58501700      0.45043200      0.77604000
H           2.10046700     -0.34821700     -0.70912000
H           4.03677800      0.39779000      0.48523700
H          -0.68720700     -0.63246000      0.61265800
H          -0.83457100     -2.40554500      0.55001300
H           3.18191000     -1.22224100      2.96277400
H           4.64541900     -0.22951100      2.78689200
H           3.04207900      0.54526500      2.79474000
H           1.65710800     -2.59183800      0.29639100
H           1.17452400     -1.83708700      1.82555100
H           4.25359000     -1.85954200     -0.63974400
H           5.37781900     -1.65145100      0.72739400
H           3.92124100     -2.64845000      0.92575500
H           0.12125800     -2.19991100     -1.59276900
