18
b3lypvdz=-272.809113669764 
C          -0.02620600      1.10068500      0.18484800
C          -0.86213900     -0.11175200      0.61633800
C          -2.30455600     -0.00284900      0.10097000
C          -0.23969700     -1.45795400      0.19712400
C           1.16479800     -1.70767800      0.75086700
O          -0.23098000     -1.48202300     -1.23403800
H           0.95758300      1.12348400      0.67947300
H          -0.54654700      2.03683700      0.44638300
H           0.13853800      1.09073600     -0.90448200
H          -0.89584900     -0.12790800      1.72318700
H          -2.92170500     -0.84861700      0.44815400
H          -2.77918800      0.92611200      0.45645500
H          -2.32400500     -0.00737000     -1.00083600
H          -0.90985700     -2.25714500      0.58189400
H           1.88822400     -0.99558800      0.32464100
H           1.50493700     -2.72606400      0.49298500
H           1.19036700     -1.61996600      1.85044500
H           0.16548200     -2.31994000     -1.51350900
