20
b3lypvdz=-236.901534790445 
C          -0.94666900     -0.17118800      0.85701300
C          -2.23075800      0.20018200      0.08179500
C          -0.35762600     -1.52900700      0.40862500
C          -3.41148700     -0.76188900      0.23806400
C          -1.15230100     -0.12579000      2.37834600
C           1.14933700     -1.64784500      0.64360200
H          -0.20315700      0.60517500      0.59422100
H          -2.54994600      1.21139500      0.39435100
H          -1.97171400      0.28170000     -0.98956600
H          -0.55972500     -1.68036700     -0.66685900
H          -0.87956200     -2.34912800      0.93357300
H          -4.26335000     -0.43160700     -0.37808200
H          -3.15262000     -1.78525600     -0.08006100
H          -3.76452700     -0.81624800      1.28044200
H          -1.47919600      0.87228800      2.71589700
H          -1.91916700     -0.84938800      2.70066100
H          -0.22662000     -0.37577800      2.92169000
H           1.70247700     -0.89440100      0.05829100
H           1.52817300     -2.63743000      0.33882500
H           1.41663800     -1.50141700      1.70337300
