18
b3lypvdz=-272.803434033894 
C           1.37825400      0.98151100      0.69180700
C          -0.10442500      1.00157300      0.29879100
C           2.15355800      2.17053900      0.13629400
C          -0.90480000     -0.22889500      0.74775700
C          -1.12675700     -0.33115500      2.26034200
O           2.14898400      2.07371300     -1.28536100
H           1.85168200      0.05650900      0.31352900
H           1.49513600      0.96958800      1.79086300
H          -0.57740000      1.91401000      0.71297400
H          -0.15904900      1.10075700     -0.79836000
H           3.18853500      2.16310500      0.53478900
H           1.67929000      3.11492600      0.47947600
H          -1.88783300     -0.20840300      0.24526800
H          -0.40030500     -1.14301900      0.38105000
H          -1.60534200      0.58381600      2.65345600
H          -1.78708100     -1.17711900      2.51293100
H          -0.18456900     -0.47364000      2.81504800
H           2.62432200      2.83828300     -1.63905600
