21
b3lypvdz=-274.986844408088 
C           1.35406500      0.97001100      0.70348900
C          -0.05222400      0.91889800      0.09597700
C           2.18014800      2.19284800      0.29171500
C          -0.92262200     -0.24275300      0.60951600
C          -2.34845200      0.12881100      0.16424000
C          -0.93411900      2.15782600      0.37843900
C          -2.40755400      1.67933100      0.24770500
H           1.89698800      0.04926000      0.41974700
H           1.26659100      0.94321300      1.80667500
H           0.04312600      0.80675800     -1.00273700
H           3.18436000      2.16599300      0.74402200
H           2.30622400      2.24638700     -0.80358100
H           1.70009700      3.13113200      0.61575600
H          -0.59265100     -1.22633500      0.23743300
H          -0.86404200     -0.27441700      1.71465000
H          -3.12648400     -0.36260300      0.76850900
H          -2.50351000     -0.19897600     -0.87821800
H          -0.73892500      2.51669700      1.40548100
H          -0.70619600      2.99683100     -0.29673100
H          -2.89541200      2.10513500     -0.64328100
H          -3.00360700      2.01315200      1.11219500
