20
b3lypvdz=-236.903815795226 
C           1.41934200      0.93832000      0.58903200
C          -0.03744800      0.93581700      0.10858700
C           2.16121800      2.24715800      0.29648600
C          -0.89574700     -0.22859500      0.62700900
C          -0.33063400     -1.63288800      0.38386400
C           3.64705500      2.19647000      0.66311300
H           1.96664700      0.09874800      0.12055800
H           1.45250900      0.74437300      1.68011000
H          -0.51964900      1.88164800      0.42032500
H          -0.04914300      0.94433900     -0.99934100
H           2.05242900      2.49839300     -0.77613100
H           1.66737800      3.07019600      0.84670300
H          -1.89597200     -0.15525400      0.16337000
H          -1.05671000     -0.09439500      1.71377400
H           0.60344100     -1.80307400      0.94539700
H          -0.11117800     -1.80750600     -0.68475500
H          -1.04715500     -2.40609100      0.70790600
H           4.17193200      1.41055600      0.09355700
H           4.15576100      3.15101700      0.44781400
H           3.79122600      1.97366700      1.73542300
