20
b3lypvdz=-236.903414236146 
C           1.42278900      0.75992000      0.67425600
C          -0.03033100      1.01664000      0.26511200
C          -1.05395200     -0.02294100      0.76356300
C          -2.41916300      0.23030900      0.09627800
C          -3.51006100     -0.79552300      0.40981300
C          -1.14486800     -0.05676100      2.29422500
H           1.74025000     -0.26093500      0.39713800
H           2.10494700      1.46224000      0.16909700
H           1.57994500      0.87469500      1.75944200
H          -0.34385000      2.01773000      0.61936700
H          -0.08821600      1.05574800     -0.83785700
H          -0.70295600     -1.01912400      0.42194000
H          -2.77097500      1.24199600      0.37722300
H          -2.26354100      0.25611400     -0.99758300
H          -4.40900800     -0.60624300     -0.19904700
H          -3.16957500     -1.82312000      0.18918200
H          -3.81943500     -0.76801500      1.46736600
H          -1.48304500      0.91831000      2.69187100
H          -1.85571200     -0.81942900      2.64767700
H          -0.17134300     -0.28441300      2.75563700
