18
b3lypvdz=-272.80307098967 
C           1.45010300      0.96080300      0.60063400
C          -0.00911700      0.93935200      0.12360500
C           2.14114800      2.29592200      0.31091600
C          -0.85370900     -0.23082600      0.64649600
C          -0.35153000     -1.62297100      0.27556800
O          -0.34456900     -1.73423200     -1.14226100
H           2.01322500      0.14265400      0.11747500
H           1.49170800      0.75848900      1.68828300
H          -0.49845200      1.87869400      0.44093900
H          -0.03196000      0.93229300     -0.98010600
H           3.18894100      2.29688000      0.65386600
H           2.13857900      2.52366800     -0.76912700
H           1.62519600      3.12644100      0.82238200
H          -1.88276000     -0.12865500      0.25872300
H          -0.92319900     -0.17860200      1.74891500
H           0.66099900     -1.78843300      0.69813900
H          -1.01905200     -2.38004900      0.73590500
H           0.04315100     -2.59062900     -1.37095100
