23
b3lypvdz=-276.188893142753 
C           1.34344400      0.91152300      0.57653500
C          -0.14828700      0.75909400      0.25860600
C           2.15590100     -0.35585400      0.27698700
C           3.59151500     -0.37085900      0.83002000
C           4.44009300      0.85766400      0.48571000
C          -0.96628400      2.03945100      0.45999000
C          -2.47133100      1.83112600      0.27595800
H           1.75438200      1.76265600      0.00289200
H           1.45791500      1.18806600      1.64335200
H          -0.57185100     -0.04537800      0.88998700
H          -0.26861200      0.41000200     -0.78611200
H           1.61788200     -1.22923400      0.69085200
H           2.17869100     -0.51072200     -0.81927000
H           3.55372700     -0.48166700      1.93038800
H           4.09764500     -1.27846400      0.45468500
H           4.03320300      1.77417700      0.94421500
H           4.49046600      1.02911300     -0.60405800
H           5.47226800      0.74012200      0.85485300
H          -0.76874800      2.44323700      1.47101400
H          -0.60990700      2.81287700     -0.24579100
H          -2.86335400      1.08843100      0.99182200
H          -2.70469500      1.45722000     -0.73694700
H          -3.03536200      2.76622000      0.42601100
