18
b3lypvdz=-272.804858621831 
C           1.40297200      0.98198500      0.72734200
C           2.05716700     -0.34788600      0.32619000
C           3.48589600     -0.45196200      0.87881100
C          -0.20778900     -1.61502100      0.22516800
C           1.23057500     -1.58145500      0.74315100
O          -0.29492300     -1.48507500     -1.19173100
H           0.44953300      1.14244200      0.19975500
H           2.06347000      1.82846100      0.47336900
H           1.20612900      1.02915000      1.81429900
H           2.11647200     -0.36037400     -0.77728700
H           4.11806800      0.37268300      0.50946900
H           3.49385800     -0.41017000      1.98349800
H           3.96440400     -1.39945700      0.57647300
H          -0.78672000     -0.76769400      0.62767000
H          -0.71222300     -2.53762800      0.58045200
H           1.75078900     -2.48871700      0.37507000
H           1.21455000     -1.67052300      1.84722900
H           0.21087200     -2.21576000     -1.57832800
