21
b3lypvdz=-274.997480398367 
C           3.69492500     -0.44963300      0.90913600
C           4.46518300      0.78809300      0.41132000
C           5.49396400     -0.57233600     -1.46634600
C           3.44365400     -0.38920000      2.41903400
C           4.41470000     -1.74949700      0.50542700
C           4.76609700      0.72782600     -1.09350400
C           4.71581900     -1.81044800     -0.99898200
H           2.70983400     -0.44837300      0.39970200
H           3.88646700      1.69869200      0.64863200
H           5.41628800      0.87252800      0.97274800
H           5.66947600     -0.61761300     -2.55495600
H           6.49177100     -0.57412900     -0.98679600
H           2.84626300     -1.24827500      2.76708800
H           4.39822100     -0.40099900      2.97497700
H           2.90258800      0.52789000      2.70650200
H           5.36308600     -1.82740100      1.07231700
H           3.80174000     -2.61642600      0.81007800
H           3.81782100      0.79130400     -1.66022400
H           5.36639600      1.60234100     -1.39846300
H           3.76485800     -1.87752600     -1.56105100
H           5.28064900     -2.72811600     -1.23803700
