20
b3lypvdz=-236.903074832532 
C           2.09547000     -0.45585700      0.36411300
C           3.53858500     -0.48874500      0.91704500
C          -0.23606500     -1.49195000      0.25791800
C           3.57668800     -0.31078900      2.44122600
C           1.23532500     -1.70015900      0.62926800
C           4.31916800     -1.74192900      0.49357200
H           1.58535900      0.42642300      0.79452700
H           2.12940500     -0.27872000     -0.72783600
H           4.05540800      0.38516000      0.47553000
H          -0.68516500     -0.67975200      0.85481200
H          -0.34953800     -1.21623800     -0.80577500
H          -0.83444800     -2.40145100      0.43413400
H           3.12395500     -1.17025900      2.96554900
H           4.61342300     -0.21599600      2.80492700
H           3.02704300      0.59193500      2.75723000
H           1.64170100     -2.55533300      0.06018700
H           1.30137100     -1.98881700      1.69443100
H           4.29838200     -1.89088600     -0.59950900
H           5.37539900     -1.67366600      0.80414700
H           3.90153500     -2.64997000      0.96190300
