21
b3lypvdz=-274.986951937645 
C          -0.03048100      1.10462300      0.26720800
C          -0.80931700     -0.16321200      0.66871400
C          -2.22715700      0.11523700      0.11847700
C          -0.22262600     -1.49728300      0.19431800
C          -1.03152600      2.25498900      0.49173300
C           1.20498500     -1.77957300      0.67580800
C          -2.44042100      1.64679400      0.23157500
H           0.89971000      1.24244500      0.84038400
H           0.25281800      1.03821800     -0.80057300
H          -0.86197900     -0.18319600      1.77651700
H          -3.00313600     -0.46678000      0.64033100
H          -2.26109200     -0.19495100     -0.94220000
H          -0.24906700     -1.52175400     -0.91270200
H          -0.88818700     -2.31409900      0.52874600
H          -0.96119000      2.60954400      1.53400200
H          -0.81967400      3.12473000     -0.14951300
H           1.91984100     -1.03459000      0.28973100
H           1.55091500     -2.76939300      0.33525800
H           1.27093400     -1.76264300      1.77785500
H          -2.89492200      2.05260800     -0.68606900
H          -3.13082800      1.89608600      1.05320000
