17
b3lypvdz=-197.61812573895 
C           2.07186600     -0.45335900      0.33158800
C           3.51542500     -0.37995000      0.85213400
C           4.35648100      0.82955600      0.38042700
C           3.68347100      2.18215200      0.66222200
C           4.76492000      0.72107200     -1.09774500
H           1.46794000      0.40105200      0.67938100
H           1.57721800     -1.36842300      0.69801400
H           2.02780200     -0.47278700     -0.77092400
H           3.48921800     -0.37662000      1.95816300
H           4.04920100     -1.30512700      0.56636200
H           5.28999700      0.80077100      0.97397800
H           2.79828600      2.33874600      0.02347600
H           4.38371500      3.01098400      0.46074300
H           3.35875800      2.26392600      1.71408500
H           5.27893000     -0.23381700     -1.30243200
H           3.89046600      0.78696800     -1.76797400
H           5.45550500      1.53485600     -1.37680000
