17
b3lypvdz=-197.617607217678 
C          -1.01913900     -0.28519700      0.76030700
C          -2.32747500      0.14278000      0.07297700
C          -3.59615000     -0.61642200      0.49690300
C          -1.04432300     -0.21661900      2.28980600
C          -3.52600400     -2.13464400      0.30153900
H          -0.20800200      0.36323600      0.38296900
H          -0.74955100     -1.30979000      0.44575500
H          -2.48911600      1.22301000      0.25144800
H          -2.19701600      0.03115000     -1.02069200
H          -4.44493200     -0.21445000     -0.08483800
H          -3.82822200     -0.39437900      1.55453000
H          -1.30829900      0.79494900      2.64629200
H          -1.77575300     -0.91841900      2.72351300
H          -0.05890000     -0.47290700      2.71338100
H          -2.74765000     -2.59716700      0.93088900
H          -4.48227400     -2.61572000      0.56653800
H          -3.29929500     -2.39571300     -0.74741600
