20
b3lypvdz=-236.905942866614 
C           1.32600700      0.95661700      0.73755200
C          -0.08448400      1.12663600      0.16711000
C           2.30442700      2.03122400      0.26023500
C          -1.08184200      0.06040500      0.62891100
C          -2.47454900      0.22259600      0.01386000
C          -3.49870500     -0.79587000      0.51511700
H           1.71065200     -0.04331900      0.46101900
H           1.27626300      0.96786500      1.84293900
H          -0.46918700      2.12781100      0.44484600
H          -0.03224200      1.12058200     -0.93930600
H           3.30075900      1.90331200      0.71343800
H           2.42778700      2.00266300     -0.83651400
H           1.94563400      3.04207700      0.52385700
H          -0.68772700     -0.94300600      0.37362500
H          -1.16019000      0.08416400      1.73337000
H          -2.84126300      1.24678600      0.21787400
H          -2.39107200      0.14231000     -1.08686200
H          -4.47071500     -0.66900000      0.01138800
H          -3.15986700     -1.83086100      0.32960400
H          -3.66858400     -0.69359200      1.60133900
