15
b3lypvdz=-196.415584665809 
C          -0.04562800      0.94519600      0.24992000
C          -0.93410000     -0.23517600      0.67550300
C          -2.31346200      0.13228900      0.09279700
C          -0.94987600      2.17813400      0.46227500
C          -2.40651600      1.67818200      0.22084500
H           0.89758000      1.00611200      0.81614000
H           0.21648200      0.84277400     -0.81836700
H          -0.56231600     -1.20886900      0.31646800
H          -0.98702300     -0.28384900      1.77854300
H          -3.14321900     -0.38827900      0.59636900
H          -2.35028200     -0.15863600     -0.97151800
H          -0.84468300      2.54097000      1.49891800
H          -0.67625300      3.01662900     -0.19717100
H          -2.84753300      2.12452900     -0.68451100
H          -3.05847200      1.96809400      1.06069000
