23
b3lypvdz=-276.185047698657 
C          -0.00918600      1.06116800      0.29694000
C          -0.92600000     -0.09514900      0.74127300
C          -2.30710700      0.13579200      0.06721600
C          -0.35393900     -1.46505300      0.28309700
C          -3.44615400     -0.82490500      0.41817600
C          -1.06520800     -0.05933800      2.27616200
C           1.10562800     -1.76538800      0.64687800
H           0.98619800      1.00551200      0.76364700
H          -0.45129400      2.03041300      0.58340100
H           0.13074500      1.06926200     -0.79777300
H          -2.63037500      1.16663500      0.30372000
H          -2.15031900      0.11079900     -1.02785500
H          -0.46551000     -1.53406600     -0.81547200
H          -0.99116300     -2.26491500      0.69919500
H          -4.34358400     -0.57412900     -0.17064900
H          -3.19504700     -1.87523200      0.19598800
H          -3.72617200     -0.76440500      1.48278700
H          -1.52013200      0.88928000      2.61067200
H          -1.69778000     -0.87859300      2.65303800
H          -0.08501400     -0.14461000      2.77288600
H           1.80479000     -1.06592700      0.16188300
H           1.38265300     -2.77896400      0.31330200
H           1.28566800     -1.71568600      1.73378700
