21
b3lypvdz=-312.08814591816 
C           2.16021600      2.26976000      0.25626600
C           4.36834600      0.90586500      0.38592100
C           5.55860800     -0.63161800     -1.31455000
C           3.64229900      2.23834200      0.63745900
C           4.75489100      0.65527700     -1.07820600
C           4.75231200     -1.92864900     -1.17949500
O           1.89035100      2.11218500     -1.13373500
H           1.63401500      1.43139800      0.74464900
H           1.69943800      3.20061200      0.64726900
H           3.73590900      0.08147400      0.76667500
H           5.28834200      0.88269300      0.99866000
H           5.99388200     -0.59160600     -2.32896100
H           6.41995700     -0.65639100     -0.62052700
H           4.16937000      3.05688500      0.10597400
H           3.70820700      2.49588200      1.71078700
H           3.84611300      0.66005300     -1.70249000
H           5.36587200      1.51326800     -1.41978900
H           4.34777100     -2.07059000     -0.16301200
H           3.89671800     -1.93874800     -1.87653200
H           5.37881100     -2.80645200     -1.41152500
H           2.34747300      2.82925800     -1.59903900
