23
b3lypvdz=-276.187581449248 
C           1.35485100      0.89410900      0.65719300
C          -0.10678300      0.82813900      0.18259900
C           2.17086800      2.07178100      0.10815000
C           4.47374900      0.91095000      0.41789800
C          -0.96213600      2.06186900      0.50534500
C           3.61355000      2.16095300      0.63867600
C          -2.46006900      1.82115200      0.29115200
H           1.84910200     -0.05251900      0.37605600
H           1.36969600      0.93000100      1.76456600
H          -0.57974700     -0.05685200      0.64747900
H          -0.13379300      0.64448500     -0.90961600
H           2.18778400      2.01889600     -0.99830600
H           1.66002200      3.01790000      0.36135700
H           4.10435100      0.04983400      0.99848000
H           4.48830500      0.61053600     -0.64512000
H           5.51638600      1.09176000      0.72854000
H          -0.78578300      2.36765300      1.55442900
H          -0.63649000      2.91380800     -0.11746400
H           4.10572600      3.02384200      0.15544500
H           3.58845500      2.39541000      1.71994200
H          -2.83158000      1.01516700      0.94703200
H          -2.67306400      1.51931800     -0.74974100
H          -3.05409900      2.72480800      0.50680900
