20
b3lypvdz=-236.902744403212 
C           1.40023400      0.88096800      0.77259500
C          -0.05271600      0.95695400      0.27070000
C           2.13030900     -0.43660500      0.47765600
C          -0.99061200     -0.18355500      0.69895400
C           3.62726500     -0.36611400      0.79316900
C          -1.19575100     -0.32144400      2.20960800
H           1.96401700      1.70995900      0.30529100
H           1.44024300      1.07382300      1.86169400
H          -0.48704400      1.91813700      0.60403700
H          -0.04308400      0.99736800     -0.83466800
H           1.67077100     -1.25631600      1.05884100
H           1.99078600     -0.70824000     -0.58632700
H          -1.96959000     -0.01625900      0.21475500
H          -0.61671900     -1.14071300      0.29090800
H           4.12679700      0.40783500      0.18621200
H           3.80291400     -0.11303200      1.85379300
H           4.13514300     -1.32328300      0.58821500
H          -1.56967000      0.61853500      2.65238200
H          -1.93152700     -1.10926600      2.44160200
H          -0.26046600     -0.58375300      2.73198300
