11
b3lypvdz=-119.049789282866 
C           5.56950600     -0.57411900     -1.41106300
C           4.29725400     -1.73588600      0.47291100
C           4.71923600     -1.78135900     -1.00017500
H           5.01293100      0.36867200     -1.26471300
H           5.86454200     -0.63038900     -2.47262300
H           6.49310100     -0.51380600     -0.81046000
H           3.71072600     -0.82601800      0.69160500
H           5.17936200     -1.73237900      1.13669800
H           3.67481600     -2.60523200      0.74395000
H           3.81790000     -1.83047600     -1.63767400
H           5.28572400     -2.71100700     -1.19385700
