16
b3lypvdz=-271.607437222869 
C          -2.26396000      0.06393400      0.10402100
C          -3.62943700     -0.54889100      0.42542100
C          -4.79337700      0.13576800     -0.29825200
C          -6.14184300     -0.52169900     -0.01476800
O          -7.28397100      1.21079100     -1.24822600
C          -7.33428600      0.17620700     -0.62397400
H          -1.45558100     -0.45290600      0.64518800
H          -2.22649600      1.13012200      0.38837100
H          -2.04184400     -0.00232300     -0.97521000
H          -3.61879000     -1.62382400      0.16112000
H          -3.80419600     -0.50141900      1.51743900
H          -4.84525600      1.20067400     -0.01011200
H          -4.61308600      0.12808800     -1.38844300
H          -6.16329400     -1.57335200     -0.36528300
H          -6.33974600     -0.58883300      1.07501500
H          -8.31613700     -0.34313600     -0.44620600
