23
b3lypvdz=-276.184938244909 
C           1.41817100      0.91157900      0.53951900
C           2.12318800     -0.42503700      0.26067300
C           3.56676300     -0.45666700      0.83237300
C           4.44644400      0.74024000      0.39785000
C           1.27209500     -1.58892000      0.79474200
C           4.27542200     -1.79397900      0.55587500
C           4.65276000      0.92160600     -1.10957900
H           0.37617900      0.88450900      0.18072100
H           1.91192400      1.75961900      0.04139400
H           1.39319400      1.12941500      1.62209900
H           2.19034900     -0.54608800     -0.83734500
H           3.46702400     -0.36891400      1.93329600
H           4.02384000      1.66916200      0.81682500
H           5.43124900      0.62010600      0.88301100
H           0.23733200     -1.52030600      0.42130700
H           1.66538500     -2.56872100      0.48503900
H           1.23020300     -1.57999400      1.89892600
H           4.28335600     -2.04113300     -0.52021100
H           5.32346400     -1.75592500      0.89637200
H           3.79297900     -2.63071700      1.08179700
H           5.10450800      0.03120200     -1.57770300
H           3.70495900      1.12453500     -1.63465400
H           5.32561200      1.77092700     -1.31342900
