18
b3lypvdz=-272.80381556983 
C           1.35122100      0.94018500      0.65840200
C           2.04689600     -0.38180100      0.27765300
C           2.08318300      2.21056900      0.22900900
C           3.51371200     -0.43384000      0.72407200
C           1.26456100     -1.58074700      0.82757700
O           2.41433500      2.10934400     -1.15229300
H           0.33914100      0.94128100      0.21616100
H           1.21481300      0.99220800      1.75551800
H           2.03186600     -0.43737800     -0.82524000
H           2.99368600      2.35058400      0.84542000
H           1.42639200      3.08422700      0.42254700
H           4.11278900      0.34308100      0.22594500
H           3.61135000     -0.29914100      1.81694000
H           3.96489200     -1.40752000      0.46855900
H           0.21338300     -1.56917300      0.49341100
H           1.70959300     -2.53183700      0.49079200
H           1.26409400     -1.58681300      1.93285400
H           2.92119600      2.89557200     -1.39762400
