20
b3lypvdz=-236.900298232685 
C          -0.90528500     -0.16163200      0.67757900
C          -2.28617600      0.09973800      0.05248500
C          -0.27035100     -1.53751400      0.42287000
C          -3.50231000     -0.67357600      0.59389900
C          -3.62196400     -2.13366200      0.14708200
C           1.21624500     -1.56605800      0.77654700
H          -0.21829300      0.60806200      0.27884100
H          -0.94746000      0.02509400      1.76829100
H          -2.49645200      1.17711100      0.18261200
H          -2.21935000     -0.06573200     -1.04043800
H          -0.40158000     -1.80986000     -0.64091500
H          -0.79903400     -2.31559600      0.99754500
H          -4.40745000     -0.13862400      0.25332700
H          -3.51840800     -0.61289000      1.69848400
H          -2.81143700     -2.76593200      0.53933100
H          -4.57185200     -2.57799400      0.48731100
H          -3.59441700     -2.21470200     -0.95415100
H           1.78115200     -0.83212500      0.17807300
H           1.66285700     -2.55613700      0.58680200
H           1.38626600     -1.31927100      1.83892500
