18
b3lypvdz=-235.702724429422 
C           1.34603300      0.98382000      0.78642200
C          -0.03972700      0.91754300      0.14635000
C          -0.92668400     -0.25220400      0.61088600
C          -2.33371200      0.13449300      0.11897400
C          -0.92549600      2.15307600      0.42485000
C          -2.39578100      1.68263400      0.24243200
H           1.93555300      0.07594000      0.57073300
H           1.92178000      1.84668800      0.41107400
H           1.27438400      1.08510200      1.88437100
H           0.08198300      0.82022400     -0.95035300
H          -0.58706800     -1.22862400      0.22827600
H          -0.90799000     -0.30857100      1.71645000
H          -3.13751300     -0.37307000      0.67409100
H          -2.44452900     -0.16237200     -0.93869900
H          -0.75865900      2.48933200      1.46405100
H          -0.66680200      3.00391700     -0.22523700
H          -2.86163100      2.13316800     -0.64810600
H          -3.01374100      1.99060400      1.10123500
