20
b3lypvdz=-236.902640808231 
C           1.37042800      0.94530000      0.69614800
C          -0.07910000      0.99964100      0.18232200
C           2.08363300     -0.38147500      0.32401700
C           2.14276300      2.18287300      0.20521000
C           3.51518000     -0.44949900      0.88382200
C           1.29043600     -1.62661300      0.75778400
H           1.33284400      0.99823200      1.80344100
H          -0.71568200      0.23285400      0.64950900
H          -0.53393900      1.97933400      0.40765500
H          -0.12139600      0.85486700     -0.91299000
H           2.15859300     -0.41099300     -0.78260100
H           3.13187400      2.27185800      0.68084700
H           2.29343800      2.15249000     -0.88923300
H           1.58598500      3.10587400      0.44016600
H           4.16792500      0.32447000      0.45183300
H           3.52288400     -0.32486000      1.98257400
H           3.97597900     -1.42573300      0.65550200
H           0.33081600     -1.71233400      0.22591500
H           1.86441000     -2.54412300      0.54300800
H           1.07753100     -1.61236200      1.84247200
