20
b3lypvdz=-236.90467479483 
C           1.45608900      0.94822100      0.60775700
C           0.00358700      0.98775700      0.11515200
C           2.20918800      2.25201800      0.32794400
C          -0.91227400     -0.14729700      0.61213000
C          -2.32746600      0.01336700      0.04002300
C          -0.36712900     -1.55180300      0.31827900
H           1.99063800      0.10395100      0.13711400
H           1.47153400      0.74706900      1.69623700
H          -0.44704900      1.94631300      0.43703800
H          -0.00456200      1.01005700     -0.99329300
H           3.25021800      2.20653500      0.68789100
H           2.23521500      2.47965000     -0.75224000
H           1.72284600      3.10572200      0.83096500
H          -0.98148700     -0.04313000      1.71362300
H          -3.02831200     -0.71142400      0.48575400
H          -2.72583700      1.02499200      0.22887500
H          -2.33305000     -0.15037100     -1.05363700
H           0.58999700     -1.74224900      0.82958200
H          -0.20694800     -1.69970700     -0.76543700
H          -1.07850000     -2.32387000      0.65694500
