23
b3lypvdz=-276.187505721035 
C           2.08193100     -0.42743100      0.30823100
C           3.52158200     -0.41398600      0.86074200
C          -0.23034600     -1.50859200      0.30953400
C           4.31850300      0.81837500      0.38436400
C           1.25945200     -1.68589800      0.61766200
C           3.65203400      2.18060100      0.60570800
C           4.29865400     -1.69671500      0.53175900
H           1.54501900      0.44644400      0.71820000
H           2.10657700     -0.27641400     -0.78997400
H           3.44646500     -0.34809100      1.96563900
H          -0.67291400     -0.70848800      0.92694300
H          -0.39286700     -1.23316800     -0.74754800
H          -0.80082500     -2.43135600      0.50734000
H           4.54924600      0.69797600     -0.69207000
H           5.29378900      0.80938900      0.90352700
H           1.65577100     -2.54044800      0.04175700
H           1.38136700     -1.95716400      1.68342800
H           2.76314200      2.31799500     -0.03069000
H           4.35198700      2.99823700      0.36620500
H           3.33036100      2.31107700      1.65420300
H           4.34263100     -1.86724100     -0.55906800
H           5.33560000     -1.63282200      0.90166000
H           3.84183900     -2.58668100      0.99104800
