17
b3lypvdz=-197.617980334009 
C           2.15294400      2.21169700      0.18467000
C           3.60486000     -0.42410700      0.87895000
C           4.36121300      0.81949600      0.38548000
C           3.60971900      2.14266600      0.66454100
C           4.75253300      0.66751200     -1.09381100
H           1.51526600      1.48135300      0.70804800
H           2.06351200      2.02355700     -0.89926200
H           1.72985800      3.21121200      0.38245200
H           2.70361100     -0.62101000      0.27414100
H           3.28728400     -0.31861100      1.93093200
H           4.24710600     -1.31877400      0.81007800
H           5.30383600      0.87904900      0.96190100
H           4.18004600      2.97063800      0.20509100
H           3.62887500      2.33216500      1.75448100
H           5.37052600     -0.23367000     -1.24818200
H           3.86459700      0.57297100     -1.74261100
H           5.33751200      1.53465700     -1.44479600
