18
b3lypvdz=-272.803070053562 
C           1.33530400      0.95608400      0.70647000
C          -0.12651700      1.02533600      0.24023400
C           2.04445400     -0.36613000      0.34494600
C           2.12867900      2.14945100      0.16379200
C           1.29523500     -1.64908600      0.71536900
O           2.14514200      2.07074500     -1.26042700
H           1.34823800      1.05770700      1.81035400
H          -0.74087100      0.23806900      0.70273200
H          -0.57421800      1.99568900      0.51677900
H          -0.19643800      0.92758000     -0.85509000
H           3.02970800     -0.36569800      0.84638200
H           2.25145900     -0.35939100     -0.73837800
H           3.15841500      2.13031800      0.57648100
H           1.65376900      3.09211400      0.50619400
H           0.37744700     -1.77510500      0.11874500
H           1.92888500     -2.53244900      0.52954900
H           1.00172500     -1.66608400      1.78004000
H           2.65318300      2.82225100     -1.59546900
