20
b3lypvdz=-236.903903292697 
C           1.39826900      0.88970100      0.74559900
C          -0.02775600      0.99802600      0.18033200
C           2.12215700     -0.43638400      0.47349900
C          -0.98149800     -0.14615300      0.55075400
C           3.59789600     -0.40184000      0.88187600
C          -2.41968500      0.09584500      0.08120300
H           2.00005900      1.71665600      0.32361500
H           1.37913100      1.06367100      1.83940200
H          -0.46666800      1.95160600      0.52931300
H           0.02028900      1.07588800     -0.92333200
H           1.61106400     -1.25390800      1.01262800
H           2.04328400     -0.68842700     -0.60163700
H          -0.60998100     -1.09067400      0.11447000
H          -0.97114500     -0.29589700      1.64732800
H           4.14856800      0.37533200      0.32547200
H           3.71355200     -0.17728300      1.95740200
H           4.09919700     -1.36441100      0.68543800
H          -3.08867000     -0.73266200      0.36729800
H          -2.83240100      1.02048000      0.52084100
H          -2.47316100      0.20193500     -1.01710100
