20
b3lypvdz=-236.903743994107 
C           1.42627900      0.93827500      0.73683800
C           2.07987300     -0.38219000      0.30148800
C           3.51016100     -0.47054900      0.87272100
C           1.20859700     -1.58586700      0.68883100
C           4.33323500     -1.71193600      0.48732600
C           4.70652000     -1.78338800     -0.99924300
H           0.42200400      1.05255900      0.29552700
H           2.03235400      1.80474700      0.42188200
H           1.31924500      0.98609800      1.83576400
H           2.14783600     -0.36350900     -0.80349200
H           4.06919400      0.43076900      0.55640600
H           3.44577700     -0.41591200      1.97735000
H           0.17512900     -1.45661800      0.32498500
H           1.58985400     -2.52402500      0.25425000
H           1.16571000     -1.71480300      1.78568200
H           5.26210000     -1.70857500      1.08482500
H           3.79375600     -2.62999500      0.78097600
H           5.25415300     -0.87767500     -1.31443300
H           3.81561000     -1.87680000     -1.64271500
H           5.35521100     -2.65120600     -1.20566800
