21
b3lypvdz=-312.088106278918 
C           1.42710200      0.98096500      0.77163700
C           1.96848400     -0.37575000      0.30325200
C           2.21251500      2.19930800      0.25715100
C          -0.26128300     -1.67580400      0.16994400
C           1.14757300     -1.58968200      0.76308900
C           3.69909100      2.22252700      0.63223300
O          -0.27011300     -1.63449700     -1.25315700
H           0.37914200      1.08870400      0.43830300
H           1.40483100      1.00323200      1.87907300
H           3.00115800     -0.50554400      0.67172000
H           2.02146700     -0.38245700     -0.79979400
H           2.10954100      2.25392500     -0.84327900
H           1.72858300      3.11197500      0.64907600
H          -0.87054700     -0.80985200      0.48105700
H          -0.77707200     -2.57633900      0.56306900
H           1.69279000     -2.51303000      0.48118000
H           1.07371400     -1.61574100      1.86683900
H           4.24946000      1.37261700      0.19634100
H           4.18808800      3.14138000      0.26893000
H           3.84229300      2.17915000      1.72684400
H           0.26078400     -2.38288500     -1.56680900
