21
b3lypvdz=-312.094353195475 
C           1.41582900      0.94903500      0.61812200
C          -0.05064700      0.93446800      0.16719100
C           2.17798000      2.20317600      0.18952000
C          -0.87325200     -0.25297500      0.69360000
C          -0.36034600     -1.64267900      0.29352400
C           3.62190300      2.21789100      0.69406200
O           2.14234200      2.23245700     -1.24149800
H           1.95008000      0.07144400      0.21119100
H           1.46794900      0.87367400      1.72089200
H          -0.53553400      1.86847300      0.50974300
H          -0.08057000      0.96089000     -0.93602700
H           1.64526100      3.08955400      0.60159600
H          -1.91197300     -0.13929900      0.33326900
H          -0.92741500     -0.19475200      1.79792100
H           0.62562300     -1.86320400      0.73658500
H          -0.26326700     -1.73765700     -0.80251600
H          -1.05272800     -2.42932800      0.63730900
H           4.17704800      1.36097000      0.27824400
H           4.14049000      3.13999100      0.37651600
H           3.67067100      2.16999700      1.79534800
H           2.60255600      3.03417700     -1.52969200
