20
b3lypvdz=-236.902708749551 
C           1.32742400      0.89881000      0.75757900
C          -0.10858800      0.96370000      0.20798200
C           2.08850400     -0.39471000      0.43337600
C          -1.01774400     -0.19437200      0.63778400
C           3.54930200     -0.40930800      0.91037800
C           3.71444600     -0.43455300      2.43463100
H           1.89733400      1.75617900      0.35040400
H           1.29997100      1.04656200      1.85410800
H          -0.56205200      1.91719700      0.53435600
H          -0.07653500      1.00652000     -0.89762400
H           1.56395100     -1.25823400      0.88292900
H           2.06380100     -0.56133100     -0.66069000
H          -2.05238900     -0.03670100      0.29024000
H          -0.67833000     -1.15808600      0.22272600
H          -1.04540300     -0.30139400      1.73696500
H           4.08015900      0.46850500      0.49434400
H           4.05428900     -1.29243700      0.47968800
H           3.16605000     -1.28303900      2.88100600
H           4.77394800     -0.53712400      2.72228900
H           3.33195900      0.48351600      2.91153200
