21
b3lypvdz=-312.085168816092 
C           1.33759800      0.86380600      0.55256800
C           2.18203000     -0.40917100      0.43678700
C           3.59234100     -0.30143300      1.04092900
C           4.49816500      0.79847900      0.46003900
C           5.44348700     -0.58545200     -1.49299700
C           4.78715800      0.71694100     -1.04552000
O           5.84833600     -0.41749400     -2.84666000
H           0.31479800      0.69457900      0.17774500
H           1.76587200      1.69725000     -0.02831800
H           1.25791000      1.20123100      1.60103000
H           1.65591300     -1.23658200      0.94510100
H           2.24840500     -0.70654400     -0.62565700
H           3.50034000     -0.12676500      2.12896400
H           4.09461000     -1.28113000      0.94000400
H           4.05372900      1.78589000      0.67734400
H           5.45768200      0.77771400      1.00781500
H           4.73359000     -1.43125200     -1.39145700
H           6.30996200     -0.81242200     -0.83501800
H           3.86563500      0.86805900     -1.63464200
H           5.46860800      1.53768700     -1.32846600
H           6.21832900     -1.25699100     -3.15369100
