21
b3lypvdz=-312.092125838119 
C           2.14536700      2.09515300      0.30788400
C           4.46208500      0.97757000      0.39524400
C           5.52095000     -0.63743200     -1.30667000
C           3.63736800      2.25821300      0.61259700
C           4.78016700      0.68347800     -1.07534400
C           4.61291800     -1.86576600     -1.24322600
O           6.13260300     -0.53308900     -2.59645000
H           1.68537200      1.34127300      0.96936500
H           1.96922900      1.76859800     -0.73136900
H           1.59692100      3.04003100      0.45643500
H           3.92254900      0.12685100      0.85340700
H           5.41436400      1.06040200      0.94864300
H           6.30832400     -0.73700900     -0.52839400
H           4.06024900      3.06981400     -0.00820600
H           3.75300300      2.58975100      1.65952500
H           3.86209300      0.68524800     -1.68916900
H           5.42248700      1.48639600     -1.47671400
H           4.09895100     -1.95014900     -0.27132100
H           3.84807600     -1.81466100     -2.03623600
H           5.19864100     -2.79131800     -1.38808900
H           6.54518300     -1.38695500     -2.79371200
