21
b3lypvdz=-274.997431177829 
C           1.37634400      0.94457900      0.72359900
C          -0.06888500      0.94758300      0.20768000
C           2.09520400     -0.37233600      0.37381200
C           2.17192100      2.15724900      0.20619100
C           3.55153600     -0.39542200      0.86677800
C           4.34061600      0.81942100      0.35346700
C           3.63637200      2.14615400      0.67774500
H           1.34202100      1.02093000      1.82929200
H          -0.64552000      0.10892900      0.63227900
H          -0.59053300      1.88230800      0.47736500
H          -0.09834800      0.85215300     -0.89317000
H           1.53778900     -1.22531300      0.80156000
H           2.07982200     -0.50784400     -0.72558600
H           2.14232900      2.16568100     -0.90148700
H           1.68262300      3.09069600      0.53868800
H           3.56312500     -0.39993500      1.97357300
H           4.04701200     -1.32776100      0.54330000
H           4.46335200      0.73067800     -0.74329300
H           5.35707100      0.82118600      0.78423000
H           4.18589900      2.98420200      0.21454200
H           3.66824900      2.31826000      1.77103600
