21
b3lypvdz=-312.088880086036 
C           2.00616400     -0.36488900      0.36373600
C           3.44983600     -0.35990700      0.88454200
C          -0.20901200     -1.63677000      0.22814200
C           4.31930000      0.80724900      0.38375900
C           1.23604900     -1.64138900      0.73049800
C           3.74364800      2.20941300      0.62505100
O          -0.30216300     -1.52230100     -1.19041200
H           1.45964000      0.50772000      0.76677900
H           2.00118500     -0.25301800     -0.73498000
H           3.43568100     -0.35846400      1.99250400
H           3.94028200     -1.30607700      0.58698900
H          -0.74343200     -0.75888200      0.62918000
H          -0.74779000     -2.53783800      0.58908600
H           4.50249700      0.67910900     -0.69991300
H           5.30820300      0.73569600      0.87126300
H           1.75740000     -2.52053100      0.30142400
H           1.23932000     -1.78293800      1.82825400
H           2.83559800      2.38807600      0.02591700
H           4.47691700      2.98388900      0.34266000
H           3.48302400      2.36412200      1.68761100
H           0.15705500     -2.28717100     -1.56789000
