20
b3lypvdz=-236.903388090423 
C           1.39092500      0.91829900      0.65642800
C           2.17766800     -0.36351200      0.33020300
C           2.07528200      2.23879900      0.27876100
C           3.60634500     -0.47628600      0.89580700
C           3.64959500     -0.32392300      2.42122500
C           4.24264600     -1.80745300      0.47057100
H           0.41890200      0.85401900      0.13551600
H           1.14746500      0.94141200      1.73488500
H           1.59380200     -1.23031200      0.69758900
H           2.23070000     -0.48184000     -0.76980100
H           2.97818600      2.42611100      0.88370900
H           2.38116400      2.25551500     -0.78279500
H           1.39298500      3.09056100      0.44257300
H           4.21484900      0.33845600      0.45500100
H           2.99076200     -1.06482600      2.90926800
H           4.67107500     -0.48660600      2.80544400
H           3.32369100      0.67470800      2.75553100
H           4.22644800     -1.93520600     -0.62524500
H           5.29177900     -1.87724800      0.80498200
H           3.69773100     -2.65996800      0.91514800
