21
b3lypvdz=-312.094384804739 
C           1.33691500      0.92452600      0.66547100
C          -0.15803000      1.04204900      0.34359700
C           2.16488800      2.08329100      0.10843200
C          -0.94375200     -0.22190700      0.69340700
C           4.43327400      0.87798200      0.44923600
C           3.60666800      2.15173000      0.64213200
O           2.14633600      1.92808000     -1.31646400
H           1.73170700     -0.01362000      0.23714500
H           1.48499200      0.86178700      1.75922500
H          -0.58033800      1.90686900      0.88844000
H          -0.26711100      1.26994600     -0.73032000
H           1.66074100      3.03329600      0.38977500
H          -2.01532000     -0.11477200      0.45595600
H          -0.56422700     -1.09068700      0.12925100
H          -0.86115600     -0.46651700      1.76737300
H           4.05331700      0.04977800      1.06917500
H           4.40293600      0.55044600     -0.60246100
H           5.48564500      1.04491900      0.73014600
H           4.10735800      2.99577300      0.13023200
H           3.57525100      2.43188000      1.71101000
H           2.60280500      2.68925300     -1.70355900
