23
b3lypvdz=-276.185458197274 
C           1.35947400      1.01159500      0.69949700
C          -0.10042500      0.93654600      0.20194700
C           2.13806600      2.24036600      0.20857600
C          -0.87740800     -0.30733400      0.72221800
C          -0.25110100     -1.63662900      0.27236900
C          -1.11316400     -0.32089400      2.24204100
C          -0.87374800      2.23873300      0.47337700
H           1.89526200      0.10352400      0.37188500
H           1.37889300      0.99686400      1.80532500
H          -0.05673700      0.81892900     -0.90005800
H           3.19748500      2.18020300      0.50818500
H           2.10518800      2.32828200     -0.89214000
H           1.73477300      3.17580700      0.62807400
H          -1.87345700     -0.24399000      0.24224600
H           0.70216800     -1.83773800      0.79077400
H          -0.05236600     -1.64827700     -0.81293500
H          -0.92747300     -2.47810100      0.49905500
H          -1.56806100      0.61412200      2.60549400
H          -1.79569200     -1.14205600      2.51772300
H          -0.17422200     -0.47771900      2.79996700
H          -1.93321100      2.13484100      0.18336900
H          -0.84228900      2.52494400      1.53904700
H          -0.46035600      3.08028100     -0.10333700
