20
b3lypvdz=-236.900473941993 
C          -0.00147700      1.00978800      0.30581500
C          -0.94154000     -0.16681000      0.60542200
C          -2.31383100      0.06666000     -0.06718500
C          -0.26730700     -1.48849500      0.20517700
C          -3.54324400     -0.63531700      0.53513100
C          -3.60985800     -2.15819000      0.40665000
H           0.97769700      0.87888000      0.79436500
H          -0.42952000      1.96255000      0.65872100
H           0.17835800      1.10847000     -0.77990300
H          -1.10649400     -0.18857100      1.70098000
H          -2.52134800      1.15160800     -0.02220000
H          -2.23348700     -0.18218400     -1.14386300
H           0.71283000     -1.59061300      0.69938000
H          -0.09348400     -1.52783800     -0.88528400
H          -0.86851300     -2.36736500      0.47658700
H          -4.43538600     -0.20601800      0.04464500
H          -3.62754100     -0.35380100      1.60184700
H          -2.84004900     -2.66602600      1.00645800
H          -4.58653100     -2.53734600      0.75032800
H          -3.47527400     -2.48158300     -0.64027200
