19
b3lypvdz=-310.886726028299 
C          -0.02048500      1.00880300      0.25281100
C          -0.85680500     -0.21586700      0.66981800
C          -2.27033800      0.11444000      0.13666400
C          -0.31309300     -1.55583700      0.18279700
C          -0.96805900      2.20553900      0.45490900
C          -2.40550000      1.65620500      0.21574000
O          -0.26542700     -1.53235100     -1.24157700
H           0.91301800      1.10483000      0.83075900
H           0.25636500      0.89695800     -0.80872200
H          -0.88563700     -0.26247500      1.77618500
H          -3.05990500     -0.41575500      0.69256700
H          -2.32669900     -0.22466900     -0.90995100
H           0.69625400     -1.72320600      0.61170500
H          -0.96478200     -2.37638000      0.54657100
H          -0.87825600      2.58323200      1.48779300
H          -0.72274200      3.04830200     -0.20999800
H          -2.84576100      2.06029400     -0.70951500
H          -3.07714700      1.95994800      1.03463200
H           0.12160000     -2.36571300     -1.54278900
