23
b3lypvdz=-276.18865395409 
C           0.08492800      0.93701100      0.30631500
C          -0.95043800     -0.13313500      0.70348300
C          -2.31190600      0.24741800      0.05953200
C          -0.47610200     -1.50572300      0.18611200
C          -3.53140900     -0.59900500      0.44376700
C          -4.79887700     -0.20736100     -0.32111600
C          -1.05003400     -0.17591900      2.23977300
H           1.08310400      0.69066100      0.70682300
H          -0.19846900      1.92786400      0.70116800
H           0.17350100      1.02650800     -0.78979800
H          -2.52873000      1.30601800      0.30039200
H          -2.18819000      0.20597700     -1.04025400
H           0.50318900     -1.77045000      0.61917600
H          -0.36970300     -1.50220800     -0.91224700
H          -1.18078900     -2.30965800      0.45304800
H          -3.32086500     -1.66810200      0.26011200
H          -3.72365500     -0.50265400      1.52734500
H          -5.65835500     -0.82207800     -0.00836400
H          -5.06281700      0.85029900     -0.14469700
H          -4.67425900     -0.34020300     -1.41040500
H          -1.38739300      0.79156500      2.65043900
H          -1.75189500     -0.94905600      2.58895100
H          -0.06623600     -0.40396900      2.68434500
