23
b3lypvdz=-276.186620271576 
C           1.39945100      0.94236500      0.67569100
C           2.13922600     -0.32990500      0.21086000
C           2.08476700      2.28121700      0.38042500
C           3.57743800     -0.38952500      0.77186500
C           1.31043500     -1.56877000      0.58341100
C           4.37199300     -1.68412500      0.52412100
C           4.62983600     -2.01304900     -0.94988100
H           0.39937800      0.94068600      0.20546200
H           1.21956400      0.86534500      1.76605900
H           2.20102600     -0.28908200     -0.89472400
H           3.00898600      2.41618400      0.96563400
H           2.35099600      2.37704100     -0.68733200
H           1.41596000      3.12094000      0.63399700
H           4.15372000      0.45508100      0.35109600
H           3.53410200     -0.21089500      1.86424800
H           0.27021800     -1.46841400      0.23042200
H           1.71772800     -2.48987100      0.13843800
H           1.27876800     -1.71335500      1.67853400
H           5.33955700     -1.59463300      1.04870200
H           3.85545000     -2.53436000      1.00502400
H           5.15060200     -1.18380900     -1.46116500
H           3.69343400     -2.20349700     -1.50051800
H           5.26056700     -2.91176800     -1.05477000
