23
b3lypvdz=-276.184837506044 
C           2.11346800     -0.38013500      0.26977100
C           3.55357800     -0.37345800      0.82368700
C           4.33836600      0.89188400      0.41873500
C           1.30049700     -1.64061400      0.58107300
C           3.67685300      2.23178900      0.75624200
C           4.35788500     -1.65287600      0.49540000
C           4.54816500     -1.96031300     -0.99446200
H           1.58406100      0.49319200      0.68696100
H           2.12949200     -0.21951000     -0.82514600
H           3.46778500     -0.34950100      1.93005800
H           4.54684800      0.86372100     -0.66667600
H           5.32508100      0.84558000      0.91437500
H           0.24800300     -1.51478000      0.27830600
H           1.68904500     -2.52651500      0.05324000
H           1.31029300     -1.87429300      1.66039000
H           2.77625900      2.41632100      0.14828000
H           4.37306800      3.06528600      0.56532700
H           3.37379400      2.28411700      1.81688100
H           5.34636300     -1.57144900      0.98077900
H           3.86338500     -2.51412200      0.97719000
H           5.13070300     -1.17990200     -1.51127000
H           3.58359000     -2.05022100     -1.52026800
H           5.08801600     -2.91170400     -1.13307400
