23
b3lypvdz=-276.188571169347 
C          -0.95265700     -0.21574000      0.67405000
C          -2.21475100      0.34153100     -0.01711200
C          -0.62445200     -1.68259300      0.38398700
C          -3.49966600     -0.40230800      0.39888700
C          -4.77125900      0.03182600     -0.34176600
C          -5.99219900     -0.82676300     -0.00926100
C          -2.31265100      1.85232800      0.24261400
H          -0.09499000      0.40828700      0.36182800
H          -1.04545500     -0.06551900      1.76731600
H          -2.08766700      0.18716400     -1.10856100
H           0.31244400     -1.98151400      0.88174400
H          -0.49826800     -1.85740800     -0.69875000
H          -1.40936800     -2.36900600      0.74021100
H          -3.36122800     -1.48529700      0.22803500
H          -3.64798100     -0.28132400      1.49107000
H          -5.00155800      1.08684000     -0.11009800
H          -4.58338200     -0.00892300     -1.43191600
H          -6.88323200     -0.48335400     -0.55954000
H          -5.82847700     -1.88620600     -0.27330000
H          -6.22964100     -0.78734000      1.06809800
H          -1.38626100      2.36806000     -0.06060700
H          -3.14141600      2.32310600     -0.30706600
H          -2.46708800      2.05675500      1.31773700
