18
b3lypvdz=-272.803562151978 
C           2.08241600     -0.42417400      0.33377100
C           3.53057500     -0.44450200      0.85690100
C          -0.21672100     -1.53848200      0.23701500
C           1.22776100     -1.63509700      0.73445300
C           4.33220800     -1.69918000      0.48511700
O          -0.31213100     -1.45012700     -1.18289400
H           1.58774600      0.49515600      0.70016800
H           2.08751000     -0.34871800     -0.76821600
H           4.05339700      0.44615900      0.46370600
H           3.52586200     -0.33406600      1.95860000
H          -0.68671500     -0.61676400      0.62003100
H          -0.81405200     -2.39219000      0.62070000
H           1.67246500     -2.56098800      0.32200400
H           1.22562300     -1.75277500      1.83532400
H           4.31961800     -1.87723700     -0.60522600
H           5.38541100     -1.59970800      0.79751000
H           3.93118000     -2.60079900      0.97725700
H           0.09424800     -2.25070700     -1.54682000
