20
b3lypvdz=-236.902050956175 
C           2.20119800      2.22205900      0.24315700
C           3.73017000     -0.43170700      0.92321900
C           4.41473900      0.82886000      0.35532200
C           3.45739900     -0.41656200      2.43034200
C           3.67218700      2.14967700      0.67010700
C           4.67749700      0.65662000     -1.14846700
H           1.57744200      1.48740800      0.77747000
H           2.07039900      2.04124100     -0.83730700
H           1.78250200      3.21835600      0.46355200
H           2.78087000     -0.60740300      0.38252300
H           4.37029500     -1.29876300      0.67834000
H           5.40066600      0.91559400      0.85221600
H           3.03110100     -1.37646000      2.76685700
H           4.38328700     -0.24377700      3.00655300
H           2.74106200      0.37053400      2.71642100
H           4.22801600      2.97196000      0.18371500
H           3.74207000      2.35062900      1.75423700
H           5.32535600     -0.21515400     -1.34144600
H           3.74333800      0.49713300     -1.71419300
H           5.17840800      1.54195500     -1.57471700
