21
b3lypvdz=-312.094619404521 
C           1.38298100      0.96917100      0.69817300
C          -0.09953800      1.00085000      0.30642700
C           2.17757400      2.16113800      0.16016100
C          -0.90326400     -0.23146100      0.74703800
C          -1.15124300     -0.33280400      2.25578700
C           3.63361700      2.16681600      0.62577200
O           2.10560900      2.08322800     -1.26821200
H           1.85058400      0.04679600      0.30423700
H           1.49580700      0.93853600      1.79703100
H          -0.57083800      1.91094100      0.72704600
H          -0.15431000      1.10773200     -0.78955000
H           1.68505500      3.09303800      0.51615700
H          -1.87804700     -0.21604400      0.22866800
H          -0.39019900     -1.14485700      0.39025600
H          -1.64587600      0.57818000      2.63820900
H          -1.80815200     -1.18441100      2.49872400
H          -0.21830400     -0.46507500      2.82839600
H           4.14291300      1.24692900      0.29326600
H           4.17800400      3.02754200      0.20019400
H           3.70993700      2.23672900      1.72404000
H           2.58769000      2.84062600     -1.63052100
