21
b3lypvdz=-312.088010067785 
C           1.41132000      0.95367900      0.71799900
C           2.06629600     -0.37455300      0.31207500
C           3.50966600     -0.44261500      0.85218800
C          -0.21906300     -1.60259800      0.23652700
C           1.22991300     -1.60294300      0.72747600
C           4.28592900     -1.71843900      0.50377000
O          -0.32973100     -1.43760200     -1.17499300
H           0.46194200      1.12078100      0.18635400
H           2.07531900      1.80117700      0.47693100
H           1.20833500      0.99109100      1.80398900
H           2.12286600     -0.38600200     -0.79245700
H           4.05918300      0.42960200      0.45406000
H           3.49424900     -0.31266600      1.95225200
H          -0.78177500     -0.76036700      0.67008800
H          -0.72652600     -2.52925300      0.57664700
H           1.71550000     -2.51456300      0.33201500
H           1.23355100     -1.71223900      1.82989800
H           4.26885900     -1.91486600     -0.58309800
H           5.34103700     -1.63344600      0.81152200
H           3.87183300     -2.60579300      1.00869200
H           0.16759800     -2.15908500     -1.58883500
