23
b3lypvdz=-276.184297607663 
C          -0.99332000     -0.23011600      0.74544400
C          -2.29399300      0.06955700     -0.02592300
C          -0.20832800     -1.47980600      0.32493900
C          -3.59094100     -0.63994600      0.42021000
C          -4.79327800     -0.03194100     -0.33227100
C          -6.17677500     -0.50096800      0.12989600
C          -3.54497900     -2.16627700      0.26715600
H          -0.32545000      0.64074700      0.61526600
H          -1.21374000     -0.27358200      1.82923400
H          -2.48368300      1.15505300      0.06257800
H          -2.13110100     -0.11979600     -1.10618200
H           0.74408800     -1.54530000      0.87549600
H           0.03415500     -1.45002600     -0.75199000
H          -0.75981400     -2.41379500      0.51103200
H          -3.72916300     -0.41059500      1.49752200
H          -4.74049400      1.06786600     -0.23086700
H          -4.67835500     -0.24388000     -1.41386300
H          -6.97125900      0.05572000     -0.39201900
H          -6.34529300     -1.57201200     -0.07081300
H          -6.31410100     -0.33892500      1.21376300
H          -2.75715300     -2.62076100      0.88363400
H          -4.49706000     -2.62919800      0.57109000
H          -3.35316200     -2.45621800     -0.78213000
