21
b3lypvdz=-312.094595542271 
C          -0.87352900     -0.04423300      0.62060100
C          -2.23683100      0.32363500      0.01431200
C          -0.36709100     -1.44563200      0.26129300
C          -3.39579100     -0.61288600      0.36987100
C          -4.72763200     -0.18459900     -0.25335700
C           1.04670100     -1.70612300      0.78191100
O          -0.41377900     -1.54226200     -1.16571000
H          -0.11879500      0.69147100      0.29048200
H          -0.91530200      0.02234000      1.72533800
H          -2.49005000      1.35264200      0.32994400
H          -2.12293300      0.34259600     -1.08362400
H          -1.04916100     -2.19606200      0.71438700
H          -3.15770300     -1.63603000      0.02874900
H          -3.50391200     -0.66911600      1.47073300
H          -5.54327100     -0.87441100      0.01821000
H          -5.02098700      0.82615000      0.08113300
H          -4.66657100     -0.16042600     -1.35588600
H           1.75817500     -1.00209600      0.32091600
H           1.37291600     -2.73275800      0.53738700
H           1.10142800     -1.59530200      1.87856000
H          -0.06558200     -2.41049800     -1.41605100
