17
b3lypvdz=-197.618587544783 
C           2.00341200     -0.37223100      0.36221800
C           3.44710400     -0.35711000      0.88200300
C           4.31468900      0.81332200      0.39265800
C           1.27228900     -1.67865300      0.68777300
C           3.73587200      2.21295700      0.63461300
H           1.44363000      0.47905600      0.79030600
H           2.00216800     -0.21609500     -0.73384700
H           3.42986100     -0.36891100      1.98974100
H           3.94060500     -1.29996400      0.57863200
H           4.50790400      0.68889400     -0.68962500
H           5.30064800      0.74081400      0.88578200
H           0.23440500     -1.66766100      0.31637100
H           1.78047200     -2.54277900      0.22597900
H           1.23929300     -1.85898900      1.77673900
H           2.82872900      2.39172200      0.03376100
H           4.46698800      2.99116500      0.35825500
H           3.46742900      2.36626400      1.69524100
