21
b3lypvdz=-274.987090153895 
C          -0.03033900      0.91215400      0.30291000
C          -1.01039900     -0.21889400      0.65442900
C          -2.32194900      0.22125100     -0.02625700
C          -3.57302000     -0.53258300      0.44049100
C          -4.87173800     -0.12888900     -0.26997000
C          -0.87911600      2.19135500      0.47783200
C          -2.35104300      1.76318500      0.18596100
H           0.87800400      0.91348400      0.92657500
H           0.29179500      0.80476700     -0.74770600
H          -0.66933100     -1.21088600      0.31475000
H          -1.14916800     -0.26807600      1.75131200
H          -2.20320400      0.03077800     -1.11165700
H          -3.40934200     -1.61637500      0.28958200
H          -3.69348600     -0.38723200      1.53242800
H          -5.71858100     -0.73719500      0.08835800
H          -5.12322800      0.92969300     -0.08822700
H          -4.79601300     -0.27580700     -1.36238700
H          -0.79338000      2.55393400      1.51643000
H          -0.53836700      3.01293000     -0.17176900
H          -2.76253900      2.28118800     -0.69440800
H          -3.00065800      2.02731900      1.03892300
