15
b3lypvdz=-233.517965603737 
C           1.40242800      0.97114800      0.74411400
C           2.08847500     -0.35673500      0.38726800
C           2.08214300      2.21926900      0.18728400
C           3.55168200     -0.46019900      0.82539000
O           2.21961400      2.06854400     -1.22081900
H           0.36400200      0.94525900      0.36828500
H           1.33981800      1.08820600      1.84238600
H           1.50789800     -1.17719300      0.84480800
H           2.02433300     -0.49662400     -0.70495000
H           3.06923000      2.36305800      0.67382300
H           1.46737100      3.10734200      0.44377200
H           4.18300900      0.28049800      0.30846800
H           3.66889500     -0.30075400      1.91253900
H           3.96612400     -1.45442700      0.58899800
H           2.71157800      2.83120800     -1.55566400
