23
b3lypvdz=-276.18666553364 
C           2.11132500     -0.42581400      0.34783900
C          -0.98827100     -0.21830500      0.70276400
C           3.55446200     -0.50271900      0.88689200
C          -0.25181700     -1.49207600      0.26680400
C           1.20768700     -1.60051700      0.75103700
C           4.38397400     -1.72761800      0.46525500
C           4.73037600     -1.76731000     -1.02879300
H           1.67143500      0.51372100      0.72461200
H           2.12342000     -0.33380800     -0.75498900
H          -0.56638600      0.68202300      0.22774700
H          -2.05359100     -0.26558400      0.42024000
H          -0.93641800     -0.07801300      1.79740000
H           4.09464100      0.40925400      0.57033600
H           3.51661800     -0.46450800      1.99233800
H          -0.27632200     -1.56365000     -0.83746800
H          -0.80675300     -2.37154100      0.64076400
H           1.62676200     -2.54187100      0.35415200
H           1.21519700     -1.70011600      1.85438900
H           5.32392900     -1.72313200      1.04537200
H           3.86174900     -2.65780400      0.75212400
H           5.27110000     -0.85420300     -1.33427800
H           3.82785100     -1.84846200     -1.65749000
H           5.37663100     -2.62924800     -1.26524600
