21
b3lypvdz=-274.985960139767 
C           1.33655800      1.01361200      0.80902300
C          -0.06143200      0.91462700      0.19843200
C          -0.97315400     -0.23654800      0.70340200
C          -2.34676300      0.16640200      0.12037400
C          -1.01725000     -0.38879200      2.23025500
C          -0.92914000      2.18066900      0.38291300
C          -2.40102000      1.71676800      0.20264100
H           1.90504400      0.07703900      0.67265900
H           1.91627400      1.82120800      0.33146900
H           1.30135000      1.23322300      1.88962200
H           0.05740500      0.74897600     -0.88951300
H          -0.63629700     -1.19758400      0.27632400
H          -3.18557000     -0.32122200      0.64219500
H          -2.40197700     -0.15357500     -0.93398200
H          -1.34114000      0.53845700      2.73354500
H          -1.73229300     -1.17813500      2.51553500
H          -0.03657000     -0.66881800      2.64702000
H          -0.77456800      2.59696800      1.39396700
H          -0.64505600      2.97506700     -0.32526000
H          -2.85688100      2.14506900     -0.70364700
H          -3.02381800      2.05308800      1.04692500
