23
b3lypvdz=-276.188856784386 
C           1.27880700      0.88156400      0.69637800
C          -0.16762900      0.88159500      0.16125000
C           2.09156300     -0.38364700      0.38580500
C          -1.00645700     -0.28269100      0.71114100
C           3.53417400     -0.35880700      0.91801200
C           3.64090100     -0.41120300      2.44726300
C          -0.83660600      2.23217200      0.46092600
H           1.80842600      1.75247300      0.26545800
H           1.24661400      1.05192600      1.79007000
H          -0.12197100      0.76840100     -0.94013700
H           1.58394400     -1.27188500      0.80275200
H           2.11631900     -0.52766400     -0.71072100
H          -2.05166300     -0.21056700      0.36519400
H          -0.62242500     -1.25988500      0.37696400
H          -1.01607800     -0.28307700      1.81649200
H           4.05339400      0.54216900      0.53926300
H           4.07860700     -1.22228900      0.49512200
H           3.09396200     -1.28001300      2.85417100
H           4.69284400     -0.50040600      2.76583500
H           3.22836800      0.49300800      2.92496200
H          -1.85353100      2.27898700      0.03630700
H          -0.91615600      2.39922200      1.55013300
H          -0.25740600      3.06881400      0.03436000
