23
b3lypvdz=-276.188203227293 
C           0.08373800      1.11409600      0.24979300
C          -0.90022700     -0.01236400      0.59752200
C          -2.27903000      0.27362600     -0.03239900
C          -0.37430800     -1.40836900      0.19961000
C          -3.43403400     -0.61713900      0.43810500
C          -4.77775100     -0.24823000     -0.19802500
C           1.02710900     -1.76186600      0.71199200
H           1.04428600      1.00369800      0.77537400
H          -0.33410100      2.09438900      0.53428500
H           0.29500400      1.14444200     -0.83427000
H          -1.02899000     -0.00816100      1.69950500
H          -2.54440800      1.32721300      0.17898000
H          -2.18740500      0.19648500     -1.13474700
H          -0.39097700     -1.48978800     -0.90525700
H          -1.08257000     -2.17057100      0.56736000
H          -3.21215300     -1.67551400      0.21313000
H          -3.51629100     -0.54407600      1.53944800
H          -5.59022000     -0.88995800      0.17898700
H          -5.05032600      0.79930300      0.01991800
H          -4.74855200     -0.36069000     -1.29646200
H           1.80432200     -1.12079100      0.26672900
H           1.28232400     -2.80433000      0.45977500
H           1.09736100     -1.65760400      1.80924600
