20
b3lypvdz=-236.904856634208 
C           2.07589900     -0.38169300      0.40568800
C           3.52409900     -0.40672100      0.92919100
C          -0.20398400     -1.52025000      0.22809700
C           4.33622000      0.75036500      0.33268700
C           3.57633600     -0.36153500      2.46312900
C           1.25882600     -1.65337400      0.66221600
H           1.55747500      0.48537000      0.86096200
H           2.08875400     -0.18388000     -0.68329900
H           3.99103000     -1.35420200      0.59273900
H          -0.70560500     -0.70368500      0.77490400
H          -0.28826300     -1.29128600     -0.84916800
H          -0.77455600     -2.44423400      0.42010600
H           3.89793100      1.72384300      0.61804800
H           4.36072900      0.70392400     -0.76903100
H           5.37769600      0.73969400      0.69483800
H           3.10316500     -1.23894100      2.93161700
H           4.61593200     -0.31009800      2.82673600
H           3.05035900      0.53336300      2.84339400
H           1.73216100     -2.49879600      0.12829200
H           1.29629700     -1.91606400      1.73515400
