15
b3lypvdz=-233.518810843292 
C           2.16044900      2.25888500      0.17740900
C           3.60389200     -0.44307100      0.88069100
C           4.30037900      0.82269700      0.36969500
C           3.59050000      2.14331900      0.70850300
O           2.06948700      2.06249300     -1.23042000
H           1.51902500      1.47816100      0.61919800
H           1.72517200      3.23244800      0.48391400
H           2.64048100     -0.61133800      0.37203800
H           3.40761000     -0.39889700      1.96695200
H           4.23088700     -1.33081300      0.69326700
H           4.40478000      0.74949500     -0.72637500
H           5.32383600      0.86867700      0.78170100
H           4.18408400      2.98237400      0.29438000
H           3.57552700      2.30037100      1.80411700
H           2.62019200      2.73990100     -1.65147000
