18
b3lypvdz=-272.803690815911 
C           1.36071400      0.97218500      0.73624500
C          -0.09389300      0.93906100      0.24531500
C           2.07223800     -0.35401700      0.39909100
C           2.10355100      2.20174200      0.19912800
C           3.55034300     -0.42138500      0.78686300
O           2.33756500      2.02464300     -1.19398400
H           1.35809900      1.09077800      1.83826700
H          -0.63092200      0.06509300      0.64802700
H          -0.64585800      1.84217000      0.55652800
H          -0.12677400      0.88683400     -0.85569700
H           1.52120900     -1.16925500      0.90125200
H           1.97441200     -0.53263500     -0.68556700
H           3.05614700      2.33260400      0.75038500
H           1.49069600      3.10632200      0.39618600
H           4.15077100      0.30118200      0.21226200
H           3.70724100     -0.21300500      1.86023300
H           3.96565700     -1.42154400      0.57931900
H           2.81200300      2.80172700     -1.52035300
