23
b3lypvdz=-276.187899010352 
C           2.09705000     -0.35901000      0.37285200
C          -1.00278400     -0.26314200      0.54677500
C           3.56858000     -0.48549500      0.78679700
C          -0.21031800     -1.56093600      0.35312200
C           4.46114400      0.70105800      0.39424100
C           1.23781100     -1.52824200      0.87131900
C           4.71871800      0.84373700     -1.10972800
H           1.69424700      0.59118200      0.77141500
H           2.01994800     -0.28179800     -0.72875800
H          -0.58670000      0.56225600     -0.05446900
H          -2.05437700     -0.39185000      0.24047500
H          -0.99911600      0.06572700      1.60150200
H           3.61806500     -0.62044400      1.88394100
H           3.98817400     -1.41440700      0.35257600
H          -0.20764000     -1.82226800     -0.72202300
H          -0.73915400     -2.38764300      0.86050800
H           4.00793100      1.63370700      0.78287500
H           5.42967700      0.59946600      0.91479800
H           1.72925800     -2.47732100      0.58472500
H           1.23291700     -1.51671400      1.97893800
H           5.16653100     -0.07725000     -1.52443500
H           3.79295100      1.04326000     -1.67445900
H           5.41638500      1.67042900     -1.32288700
