20
b3lypvdz=-236.904677396658 
C           1.39972900      0.95374800      0.71191900
C          -0.03469300      0.90100100      0.16662400
C           2.17205000     -0.31692800      0.30616700
C           2.09345400      2.26109100      0.30221100
C           3.63352200     -0.40023600      0.76552000
C           4.23418000     -1.79247500      0.54780900
H           1.33956600      0.95337300      1.81876400
H          -0.55110400     -0.02178900      0.48074500
H          -0.63378200      1.75644700      0.52090600
H          -0.03923300      0.92552600     -0.93867400
H           1.62693600     -1.18655700      0.72032800
H           2.13087000     -0.43657600     -0.79548900
H           3.07093300      2.38277100      0.79575400
H           2.25844600      2.31042300     -0.78948400
H           1.47471600      3.13026900      0.58436000
H           4.24088600      0.35215700      0.23168800
H           3.70179000     -0.13803500      1.83891500
H           4.20223000     -2.08046100     -0.51782100
H           5.28467600     -1.84042800      0.87956000
H           3.67372800     -2.55802100      1.11109600
