23
b3lypvdz=-276.187971476749 
C           1.36254600      0.95645600      0.66929400
C          -0.08592800      1.00493300      0.14406700
C           2.14004300     -0.32007200      0.31331200
C          -0.99975700     -0.13256900      0.62088800
C           3.57352500     -0.38511000      0.87373400
C          -2.45267300      0.03005800      0.15367400
C           4.49957300      0.75816500      0.44001100
H           1.89731000      1.83459800      0.26701200
H           1.35250800      1.07985900      1.77022900
H          -0.53258500      1.96806700      0.45509600
H          -0.07285500      1.01718000     -0.96337400
H           1.59304700     -1.20077700      0.69255900
H           2.17483400     -0.42873700     -0.78855300
H          -0.61572700     -1.10133400      0.25602900
H          -0.97391200     -0.18149200      1.72597100
H           3.52974200     -0.41597200      1.97903000
H           4.02318200     -1.34434100      0.55894600
H          -3.08804400     -0.79025100      0.52704300
H          -2.88510300      0.97811100      0.51834000
H          -2.52055700      0.03224200     -0.94855400
H           4.17384500      1.72845200      0.84977900
H           4.53505200      0.85138200     -0.65976700
H           5.52883300      0.58275600      0.79573500
