23
b3lypvdz=-276.191287354953 
C           1.34292200      0.94082200      0.76221000
C          -0.02520100      1.19135200      0.11985200
C           2.42246000      1.93163300      0.32723800
C          -1.09183800      0.18182000      0.55357600
C          -2.47338600      0.41494100     -0.06356000
C          -3.52694900     -0.59198700      0.41005600
C          -4.91301500     -0.37612900     -0.19939700
H           1.67004400     -0.08908400      0.52411100
H           1.23604200      0.97587800      1.86301300
H          -0.36270500      2.21540200      0.37337000
H           0.07454800      1.17093900     -0.98283200
H           3.37669600      1.73785900      0.84380000
H           2.61161700      1.87121600     -0.75859100
H           2.12767400      2.97186900      0.55274200
H          -0.74876900     -0.83984200      0.29871700
H          -1.17998800      0.20230600      1.65712700
H          -2.81213100      1.44116800      0.17919600
H          -2.39688100      0.37363900     -1.16765700
H          -3.17763900     -1.61606300      0.17801500
H          -3.59902100     -0.54008700      1.51300000
H          -5.65178200     -1.07884300      0.21864300
H          -5.27976800      0.64693100     -0.00421500
H          -4.90203000     -0.51994000     -1.29431200
