23
b3lypvdz=-276.185154362325 
C          -0.85739200     -0.15859700      0.66679600
C          -2.23673200      0.16279200      0.05222200
C          -0.27301800     -1.56102400      0.44720600
C          -3.42906300     -0.66129300      0.59058900
C          -3.57433100     -2.09335100      0.05433400
C           1.21344100     -1.63044900      0.81542200
C          -2.51805300      1.66207300      0.24749300
H          -0.13976900      0.57222800      0.24841500
H          -0.88987300      0.05265600      1.75449600
H          -2.17156600     -0.03046500     -1.03767700
H          -0.40318900     -1.85851700     -0.60948000
H          -0.82604500     -2.30385000      1.04541300
H          -4.35213200     -0.11215500      0.32819600
H          -3.39547500     -0.67554100      1.69730100
H          -2.76751200     -2.75853600      0.39340500
H          -4.52506200     -2.54041400      0.39049900
H          -3.57504700     -2.10574900     -1.05016100
H           1.80890300     -0.93295300      0.20250100
H           1.62386700     -2.64171200      0.65795900
H           1.37695300     -1.36053300      1.87375800
H          -1.72105900      2.28574100     -0.18891300
H          -3.47079200      1.96130100     -0.21941300
H          -2.57955500      1.90894900      1.32263800
