17
b3lypvdz=-197.619704405609 
C           1.40593200      0.93676700      0.73753400
C           2.08038300     -0.37435700      0.30865200
C           3.51887800     -0.43897100      0.85795300
C           1.23408100     -1.59243100      0.70716000
C           4.30310800     -1.70168300      0.47858700
H           0.39780200      1.03022600      0.30032300
H           1.99489700      1.81190200      0.41412600
H           1.30286300      0.98932600      1.83646600
H           2.14754500     -0.36754900     -0.79786400
H           4.06920300      0.44792000      0.49346900
H           3.48848100     -0.34728400      1.96155700
H           0.20053700     -1.49248600      0.33482300
H           1.64153400     -2.52575500      0.28713000
H           1.18738200     -1.70817300      1.80524100
H           4.31717900     -1.85145500     -0.61541700
H           5.34857100     -1.63177600      0.82197100
H           3.86932500     -2.60511900      0.93648800
