20
b3lypvdz=-236.902513033664 
C           2.11442800     -0.38802100      0.35496900
C          -0.99643200     -0.24775300      0.71579200
C           3.56475000     -0.46207900      0.86979800
C          -0.22981000     -1.49634200      0.26129500
C           1.22930200     -1.57986700      0.74979600
C           4.33961800     -1.71594600      0.44441700
H           1.66660400      0.54519400      0.73835100
H           2.12601400     -0.29470700     -0.74878400
H          -0.59198000      0.67026700      0.25976600
H          -2.05885700     -0.31387000      0.42638900
H          -0.95329800     -0.12707100      1.81305800
H           4.10661100      0.43197900      0.51149600
H           3.56267700     -0.39532500      1.97458100
H          -0.24792100     -1.54979400     -0.84421300
H          -0.76611300     -2.39440400      0.61779100
H           1.66823000     -2.50891900      0.34662200
H           1.23648200     -1.68823300      1.85238000
H           4.32370600     -1.84470600     -0.65252400
H           5.39436300     -1.65094800      0.76024300
H           3.92012400     -2.62915700      0.89657900
