14
b3lypvdz=-158.335198947142 
C           4.45194900      0.78811500      0.37933200
C           3.68532000     -0.42407700      0.92177200
C           3.50073100     -0.40955400      2.44022000
C           4.70691700      0.71987200     -1.12833600
H           3.88465600      1.70769500      0.61928000
H           5.41472600      0.88438600      0.91567300
H           2.69482200     -0.47018500      0.43092200
H           4.21059000     -1.34922300      0.61769800
H           2.87642100     -1.24968700      2.78481400
H           4.47054900     -0.47817600      2.96287300
H           3.01170800      0.52045600      2.78056100
H           5.32387800     -0.15699800     -1.39246800
H           3.76063500      0.63423200     -1.69064300
H           5.23429900      1.61444400     -1.49829800
