23
b3lypvdz=-276.188125804964 
C           2.00837300     -0.34978900      0.34524800
C           3.45685600     -0.35024700      0.85254200
C          -0.23041500     -1.58348400      0.29897200
C           4.34689400      0.82935000      0.39416000
C           1.25777900     -1.65092000      0.65438300
C           3.68126400      2.20114700      0.58969200
C           4.83501900      0.66581600     -1.05358700
H           1.46055600      0.49543900      0.80082100
H           1.98046800     -0.17518700     -0.74717700
H           3.43674500     -0.37386000      1.95858700
H           3.94840400     -1.29179200      0.54210100
H          -0.74120700     -0.79286800      0.87427800
H          -0.37898700     -1.35738500     -0.77171200
H          -0.74628900     -2.53349700      0.51651300
H           5.24460500      0.80283300      1.04010900
H           1.73689900     -2.48336600      0.10640000
H           1.36939400     -1.89345500      1.72825800
H           2.83747500      2.34354400     -0.10620400
H           4.40241300      3.01352600      0.39688700
H           3.29070300      2.32961400      1.61370600
H           5.35145600     -0.29874700     -1.19646900
H           4.00041700      0.71288800     -1.77474300
H           5.54698000      1.46393900     -1.32336600
