21
b3lypvdz=-312.087754623875 
C           2.16652300     -0.34212300      0.36308000
C           3.57188000     -0.45056700      0.97277200
C           5.52993900     -0.55422900     -1.52931300
C           3.49847600     -0.46331500      2.50488700
C           4.34657300     -1.68715600      0.46983600
C           4.69665100     -1.73691800     -1.02665800
O           5.98454400     -0.72621500     -2.86509100
H           1.63712400      0.54485200      0.74972700
H           1.55587400     -1.22565400      0.62468300
H           2.18768800     -0.26508500     -0.73657600
H           4.14000800      0.45266200      0.67878400
H           4.92802800      0.36904900     -1.54863000
H           6.37568100     -0.36721000     -0.83203900
H           2.94049700     -1.34411000      2.87038900
H           4.50396300     -0.49725700      2.95626800
H           2.98441300      0.43135800      2.89386300
H           5.28587100     -1.76568100      1.04820100
H           3.76369500     -2.59163700      0.72816900
H           3.79343200     -1.82505700     -1.65485100
H           5.28318100     -2.66013400     -1.20380600
H           6.50446200     -1.54357400     -2.89049500
