17
b3lypvdz=-197.61770670265 
C           2.10841800     -0.38127300      0.34519800
C           3.54696100     -0.47035600      0.89137700
C           1.21306600     -1.57756900      0.69185400
C           4.35291100     -1.71697100      0.48639900
C           4.69187400     -1.79394200     -1.00784100
H           1.64683500      0.53769500      0.74979800
H           2.12755000     -0.25013600     -0.75260800
H           4.10357600      0.43049700      0.57055400
H           3.50487400     -0.42433000      1.99652600
H           0.17227800     -1.39103500      0.37745600
H           1.54600000     -2.49918700      0.18614300
H           1.20606400     -1.77468400      1.77859100
H           5.29457000     -1.72207700      1.06382400
H           3.81148400     -2.63041100      0.79197100
H           5.24793500     -0.89809900     -1.33579600
H           3.78483000     -1.87236600     -1.63057300
H           5.32097400     -2.67295800     -1.22807300
