21
b3lypvdz=-274.997401572567 
C           1.36713300      0.94634400      0.71036500
C          -0.08760200      0.98489600      0.20856300
C           2.04464400     -0.37694400      0.31060400
C           2.15922000      2.16732400      0.22713900
C          -0.89578000     -0.23605100      0.67452900
C          -0.22182700     -1.55560700      0.26647600
C           1.23928400     -1.61588700      0.73977200
H           1.33938800      0.98302900      1.81864800
H          -0.57415200      1.91430300      0.55585500
H          -0.08813200      1.02573000     -0.89902000
H           3.05585100     -0.42280300      0.75272800
H           2.18262600     -0.39335500     -0.78860000
H           3.19109000      2.15689500      0.61748900
H           2.21655400      2.19472800     -0.87590500
H           1.68466100      3.10534700      0.56220500
H          -1.92016400     -0.19138000      0.26517100
H          -0.99367500     -0.20368400      1.77647500
H          -0.25587900     -1.65437900     -0.83600200
H          -0.78577600     -2.41248800      0.67534500
H           1.72456100     -2.52779700      0.34968400
H           1.26147300     -1.69872200      1.84378000
