20
b3lypvdz=-236.905154702442 
C           0.09631700      0.79861600      0.23661000
C          -1.05205000     -0.10079700      0.71227300
C          -2.39147500      0.33379700      0.08444500
C          -3.58774700     -0.56161600      0.42599800
C          -4.86710700     -0.19117500     -0.32702700
C          -1.09832100     -0.14446300      2.24489500
H           1.06739600      0.43836100      0.61555400
H          -0.03305400      1.83412000      0.59972600
H           0.15500400      0.83526800     -0.86399300
H          -0.84126800     -1.12725700      0.35183200
H          -2.61264400      1.37702400      0.38587800
H          -2.26840200      0.35525600     -1.01509400
H          -3.32422200     -1.61324200      0.20288400
H          -3.78704800     -0.52009700      1.51176800
H          -5.70404400     -0.84805300     -0.03959100
H          -5.17144800      0.84825200     -0.11210100
H          -4.73618900     -0.27811500     -1.42004600
H          -1.34635300      0.84808700      2.66352000
H          -1.84575700     -0.85872900      2.62242600
H          -0.12139000     -0.44513800      2.65894100
