20
b3lypvdz=-236.902935388949 
C           1.38562700      0.93359600      0.74353300
C          -0.06619000      0.94132000      0.22017200
C           2.11812700     -0.38228300      0.40878900
C           2.12537200      2.17776900      0.22904700
C          -0.95609000     -0.21200800      0.69244400
C           3.58695600     -0.44424900      0.84349800
H           1.34078600      1.01078600      1.84954900
H          -0.52985300      1.89721200      0.52534900
H          -0.04496500      0.95758300     -0.88715000
H           1.57742300     -1.21642800      0.88726200
H           2.05190500     -0.56396300     -0.68206000
H           3.11045000      2.30273200      0.70465000
H           2.28335400      2.12733700     -0.86358000
H           1.54096400      3.09007700      0.43760600
H          -1.99599300     -0.06565900      0.35664900
H          -0.62092700     -1.18456300      0.29731200
H          -0.96823400     -0.28783800      1.79405000
H           4.21575900      0.27437500      0.29441500
H           3.69949800     -0.22711700      1.92084500
H           4.00783100     -1.44717900      0.66132000
