20
b3lypvdz=-236.902150101773 
C           1.37874800      0.94136900      0.64948300
C           2.10082400     -0.38154200      0.32082300
C           2.12656200      2.21959000      0.24534200
C           3.52420900     -0.49194700      0.91168000
C           3.62758100     -0.40312000      2.44042100
C           1.22819000     -1.58531400      0.71311100
H           0.39981800      0.92611600      0.13702400
H           1.14959500      0.98237600      1.73090200
H           2.21854900     -0.41590400     -0.78045800
H           3.04495400      2.36550900      0.83740600
H           2.41412800      2.19945000     -0.82082500
H           1.49134400      3.10783400      0.40402000
H           4.16676300      0.28751900      0.46440300
H           3.95699600     -1.45364500      0.57896300
H           3.04281700     -1.19003600      2.94329300
H           4.67605500     -0.51864300      2.76232200
H           3.27344500      0.56998700      2.82145100
H           0.26901400     -1.57085000      0.16959800
H           1.73296500     -2.53747100      0.47386600
H           0.99544300     -1.58887600      1.79217400
