20
b3lypvdz=-236.90329211011 
C           1.34144800      0.93811100      0.65175000
C           2.12998900     -0.35260900      0.40538300
C           3.59160400     -0.39623300      0.92971100
C           4.39352500      0.82237800      0.43352600
C           3.61457500     -0.42920100      2.46925000
C           4.24082700     -1.69005200      0.40277500
H           0.31143100      0.83727800      0.27261600
H           1.79365800      1.79934300      0.13412900
H           1.27600600      1.19186100      1.72318800
H           1.58576400     -1.20124300      0.85851000
H           2.14701100     -0.55518200     -0.68220500
H           3.99410400      1.76328900      0.84498100
H           4.37153500      0.90164000     -0.66724200
H           5.44945800      0.75270000      0.74551300
H           3.00110400     -1.25849800      2.85985000
H           4.64285900     -0.57380100      2.84241900
H           3.23004800      0.50416300      2.91180800
H           4.24372800     -1.71736500     -0.70022900
H           5.28493800     -1.78227000      0.74689100
H           3.69208800     -2.57861100      0.75917500
