20
b3lypvdz=-236.902556967996 
C           1.30403700      0.95904600      0.71948900
C           2.07084700     -0.32034100      0.34602000
C           3.51999900     -0.37632600      0.90224600
C           4.38883400      0.77452600      0.36723600
C           3.60003000     -0.43140000      2.43703100
C           1.26236500     -1.57403100      0.71865900
H           0.30540500      0.95637100      0.25227400
H           1.82213900      1.86648500      0.37002100
H           1.15780600      1.04907600      1.80990400
H           2.16846300     -0.32419300     -0.75726200
H           3.95723600     -1.31725100      0.51619300
H           4.08567900      1.74452900      0.79673400
H           4.32250700      0.85540500     -0.73176600
H           5.44954500      0.61811500      0.62749500
H           3.05058300     -1.28943100      2.85543500
H           4.64932900     -0.52525300      2.76345700
H           3.19431600      0.48435000      2.89967300
H           0.30615800     -1.59984800      0.17040800
H           1.81589500     -2.49542300      0.46635700
H           1.02522800     -1.60590700      1.79589600
