23
b3lypvdz=-276.18751265409 
C           2.10872600     -0.32682000      0.47733500
C          -0.98310300      0.02216300      0.60604400
C           3.56463800     -0.63985600      0.83045000
C          -2.38196900      0.17622500     -0.01370700
C          -0.28915900     -1.31444800      0.30318800
C          -3.42424800     -0.84927700      0.44069700
C           1.13894100     -1.45448900      0.86067000
H           1.80522500      0.60757800      0.98107800
H           2.02872900     -0.12352700     -0.60718900
H          -0.35714300      0.84867400      0.22785300
H          -1.04450600      0.16676900      1.70258400
H           4.23666800      0.19090600      0.55789500
H           3.68647600     -0.82535400      1.91204400
H           3.92023800     -1.53974300      0.29998100
H          -2.75498900      1.18925900      0.22256800
H          -2.29211800      0.13601100     -1.11589000
H          -0.26209400     -1.45967400     -0.79450700
H          -0.89644900     -2.14540800      0.70216600
H          -4.40124100     -0.64562500     -0.02786000
H          -3.14033000     -1.87917100      0.16749300
H          -3.56699000     -0.82339000      1.53521000
H           1.55499400     -2.41490900      0.50410500
H           1.10160100     -1.53569600      1.96409100
