15
b3lypvdz=-233.51812750524 
C           1.38527900      1.01850000      0.71800300
C          -0.07325500      0.97671200      0.24927300
C          -0.86078800     -0.26296500      0.70066800
C          -0.30410100     -1.59694900      0.21257200
O          -0.27163200     -1.56788800     -1.21012400
H           1.97738300      0.19300900      0.28908700
H           1.87489700      1.95657500      0.40774300
H           1.46429100      0.94990300      1.81816800
H          -0.60293300      1.87221000      0.62051900
H          -0.10644700      1.02500100     -0.85243400
H          -1.89966700     -0.17732100      0.33461200
H          -0.91322600     -0.29987900      1.80507900
H           0.70823700     -1.76542300      0.63546600
H          -0.94965000     -2.41763500      0.58824300
H           0.14631100     -2.38505100     -1.51617500
