14
b3lypvdz=-158.333872748795 
C          -0.16528800      0.95435400      0.24087700
C          -0.90609000     -0.29274400      0.75075800
C          -1.08374300     -0.34676500      2.27298100
C          -0.92174700      2.27375300      0.44305100
H           0.82060800      1.01948100      0.73728300
H           0.04151500      0.82446200     -0.83705100
H          -1.89665300     -0.35216600      0.26236800
H          -0.34998300     -1.19013400      0.42347000
H          -1.71323100      0.47773500      2.64604000
H          -1.56583000     -1.28968500      2.58152400
H          -0.10925100     -0.28433300      2.78788500
H          -1.91570100      2.23965200     -0.03604900
H          -1.06980300      2.50435100      1.51160700
H          -0.36790200      3.11644000     -0.00304500
