23
b3lypvdz=-276.187918223819 
C           1.37934400      0.88329000      0.73555300
C          -0.04051300      1.06286900      0.16918700
C           1.99234100     -0.50493100      0.50709300
C          -1.06692000      0.01682000      0.62549100
C          -2.47472700      0.27515300      0.07339400
C          -3.56022400     -0.70032400      0.55655500
C          -3.31025100     -2.17251900      0.20314200
H           2.03422600      1.64870500      0.28191100
H           1.37187800      1.09915800      1.82113500
H          -0.40711600      2.06852700      0.44891300
H           0.00618500      1.05405200     -0.93742100
H           3.03884600     -0.53770100      0.85333300
H           1.44446300     -1.28772700      1.05584500
H           1.98371300     -0.78131600     -0.56254400
H          -0.72941800     -0.98352600      0.30339000
H          -1.10287400     -0.01318100      1.73270900
H          -2.77927900      1.30443200      0.34196900
H          -2.43633900      0.24806500     -1.03377600
H          -4.52478400     -0.38585200      0.11899900
H          -3.67679300     -0.60066100      1.65250700
H          -2.41640700     -2.57339100      0.70886000
H          -4.16223300     -2.80563100      0.50248600
H          -3.16382000     -2.30451200     -0.88413000
