23
b3lypvdz=-276.190035014512 
C           1.33790600      0.93057900      0.67712500
C          -0.13399100      0.87172500      0.25077200
C           2.09000400     -0.38439000      0.44351500
C           3.53423200     -0.42342000      0.97840700
C           3.57176800     -0.50121900      2.51115700
C          -0.86048500      2.21007300      0.39827400
C           4.31136900     -1.59417700      0.36229300
H           1.84612900      1.74224600      0.12220700
H           1.39055800      1.21844500      1.74423100
H          -0.65080900      0.09948200      0.85024300
H          -0.20029800      0.52813400     -0.79913500
H           1.52554800     -1.22035500      0.90151500
H           2.10205100     -0.59206000     -0.64320100
H           4.03687800      0.51367800      0.66529300
H           3.01667300     -1.38792900      2.86803100
H           4.60613600     -0.59126600      2.88221800
H           3.12033000      0.38080200      2.99255000
H          -1.91416900      2.13747400      0.08200800
H          -0.84633800      2.56100800      1.44516500
H          -0.38230000      2.99206500     -0.21618800
H           4.34717500     -1.52115400     -0.73761700
H           5.34933200     -1.62743100      0.73286900
H           3.83730200     -2.55841000      0.62017000
