20
b3lypvdz=-236.902713072866 
C           1.32867500      0.94527900      0.70298100
C          -0.13066300      0.92327100      0.17393500
C           2.08503700     -0.35243000      0.36948400
C           2.11808100      2.16129000      0.18675700
C          -0.92292600     -0.28571800      0.70191400
C          -0.88418200      2.22609500      0.49259100
H           1.27890200      1.02668100      1.80766000
H          -0.08031900      0.83023700     -0.92993500
H           3.13218800     -0.29452300      0.71059700
H           1.63529700     -1.23053900      0.85722800
H           2.09496900     -0.53692700     -0.71985500
H           3.16541100      2.12138100      0.52989000
H           2.12649200      2.19241000     -0.91792200
H           1.69661100      3.11137600      0.54864900
H          -1.96901400     -0.24912000      0.35472700
H          -0.50090000     -1.24047600      0.35316300
H          -0.93565600     -0.30355400      1.80689800
H          -1.93261400      2.16444000      0.15603100
H          -0.89035000      2.42568400      1.57936700
H          -0.43493900      3.09674500     -0.00866000
