17
b3lypvdz=-197.620691871922 
C           2.07674300     -0.37374600      0.32483500
C           3.51841500     -0.40306500      0.84998700
C          -0.20629700     -1.53815500      0.24422100
C           4.35135900      0.79871100      0.38989500
C           1.24801000     -1.59992500      0.73035800
H           1.57635300      0.54187800      0.69541800
H           2.09130100     -0.29197300     -0.77943300
H           3.50141400     -0.43536100      1.95567900
H           4.00986200     -1.33778600      0.52015200
H          -0.72005600     -0.64485900      0.63910700
H          -0.25843600     -1.49378100     -0.85809900
H          -0.77876100     -2.42208000      0.57204300
H           3.88914300      1.74906400      0.70963600
H           4.44092600      0.82330700     -0.71016800
H           5.37023500      0.76576200      0.80986700
H           1.73062500     -2.51221900      0.33304400
H           1.26176400     -1.69767100      1.83235900
