21
b3lypvdz=-312.09385390653 
C           2.06916900     -0.29579400      0.43726200
C          -1.01689800     -0.26062300      0.58459900
C           3.56618500     -0.47060100      0.71034900
C          -0.20703700     -1.52014100      0.29187200
C           4.37924500      0.78372700      0.38891000
C           1.22593800     -1.50548400      0.85293200
O          -0.19437000     -1.65262800     -1.13313200
H           1.70751700      0.60541800      0.96480200
H           1.91034300     -0.10566100     -0.63925900
H          -0.57520300      0.60718100      0.07118500
H          -2.04612200     -0.38083700      0.21386600
H          -1.05257600     -0.04733900      1.66486500
H           3.72138900     -0.75181500      1.76883600
H           3.94576200     -1.32210100      0.11553300
H          -0.73472900     -2.38501700      0.74571700
H           4.04265300      1.64002900      0.99716100
H           4.26580500      1.07104100     -0.67105600
H           5.45421700      0.63691600      0.58478500
H           1.72230800     -2.43321200      0.50488600
H           1.18915400     -1.58879200      1.95513900
H           0.28355000     -2.46866700     -1.34345500
