21
b3lypvdz=-312.088359629689 
C           1.43577400      0.94207800      0.57614100
C          -0.02510100      0.94087000      0.10787000
C           2.16374300      2.26383700      0.30291300
C          -0.87884100     -0.22392400      0.63023700
C          -0.36852100     -1.62332000      0.30073200
C           3.64881300      2.22666600      0.67505700
O          -0.32369000     -1.76280100     -1.11531200
H           1.98456200      0.11836100      0.08233800
H           1.48305000      0.72958300      1.66345600
H          -0.50668300      1.88210400      0.43297000
H          -0.05265400      0.93988400     -0.99594100
H           2.05518300      2.52743600     -0.76630600
H           1.65960000      3.07363000      0.86338100
H          -1.89989800     -0.13123600      0.21877600
H          -0.97299800     -0.15312300      1.73042500
H           0.63327100     -1.77659900      0.75474500
H          -1.04620700     -2.37066900      0.76316500
H           4.18630600      1.45505600      0.09805500
H           4.14559100      3.19076800      0.47443200
H           3.79092000      1.99276900      1.74539300
H           0.06457800     -2.62637100     -1.31452800
