17
b3lypvdz=-197.61843626522 
C           1.40780100      1.02468500      0.72373000
C          -0.05529300      0.95987900      0.25968200
C          -0.87003200     -0.26915800      0.72240300
C          -0.27549900     -1.60125700      0.23603500
C          -1.09340200     -0.29442700      2.24254500
H           1.99363000      0.16357500      0.36076800
H           1.89414900      1.93344900      0.33143800
H           1.49339100      1.05389500      1.82330600
H          -0.57986600      1.87169600      0.60155700
H          -0.07840300      0.99549600     -0.84578800
H          -1.86646500     -0.16606300      0.25140600
H           0.68611900     -1.82368600      0.72988400
H          -0.10265400     -1.59480100     -0.85406100
H          -0.95983900     -2.43672700      0.46151300
H          -1.51281800      0.66041700      2.60340300
H          -1.80139500     -1.09273400      2.52127000
H          -0.15522300     -0.48203800      2.79210900
