18
b3lypvdz=-272.802624682696 
C          -0.95746400     -0.19673600      0.74281800
C          -2.30067300      0.18139900      0.08210100
C          -0.42071400     -1.54226700      0.24690500
C          -3.49333400     -0.71961700      0.41678700
C          -1.00399800     -0.18787100      2.27644300
O          -0.34677600     -1.50626400     -1.17349700
H          -0.22338300      0.56545100      0.42066400
H          -2.54402300      1.22265300      0.36172400
H          -2.14093100      0.17383700     -1.00833900
H           0.57823700     -1.71937000      0.69636100
H          -1.08042300     -2.36322700      0.59779500
H          -4.38163100     -0.40622500     -0.15539900
H          -3.29978900     -1.77417600      0.15738500
H          -3.76103200     -0.67950000      1.48624900
H          -1.33732300      0.79012100      2.66238600
H          -1.69589200     -0.94911000      2.67347500
H          -0.00949900     -0.39606500      2.70700000
H           0.02024700     -2.34873300     -1.47465800
