18
b3lypvdz=-272.802777669803 
C           1.39695100      1.02329800      0.69872900
C          -0.06943300      0.96087500      0.25391900
C          -0.87864300     -0.26532600      0.73002700
C          -0.30304700     -1.59193300      0.22840800
C          -1.07766100     -0.31398600      2.25043900
O          -0.22289700     -1.54169500     -1.19096500
H           1.97908000      0.16943400      0.31326700
H           1.87915500      1.93513600      0.30922100
H           1.50632600      1.03633900      1.79678300
H          -0.59631900      1.86794500      0.60258500
H          -0.11058200      0.97730300     -0.84732700
H          -1.87668100     -0.17239300      0.26129900
H           0.69501600     -1.76587900      0.68353000
H          -0.96039700     -2.41892700      0.56846200
H          -1.47505600      0.64279400      2.62717700
H          -1.79411400     -1.10225800      2.53533700
H          -0.13561500     -0.51694000      2.78836700
H           0.19891600     -2.35708800     -1.49575600
