17
b3lypvdz=-197.619262660334 
C          -0.92181200     -0.15275000      0.68287400
C          -2.23387700      0.25956500     -0.00402100
C          -0.44513700     -1.57035100      0.34903700
C          -3.45584800     -0.58723800      0.37089600
C          -4.75684600     -0.10316300     -0.27434000
H          -0.13486300      0.56934000      0.39999500
H          -1.03899900     -0.05247700      1.77931800
H          -2.44353400      1.31672800      0.24616400
H          -2.09513900      0.22752900     -1.10290500
H           0.49776900     -1.80964600      0.86704100
H          -0.27059400     -1.68650500     -0.73533600
H          -1.18125500     -2.33494300      0.64678300
H          -3.28387400     -1.63963000      0.08198700
H          -3.56929200     -0.58670500      1.47216500
H          -5.61028000     -0.73288700      0.02543000
H          -4.98879400      0.93520800      0.02028000
H          -4.69772400     -0.12817500     -1.37686800
