20
b3lypvdz=-236.903178803673 
C           1.44158500      0.91972200      0.73741200
C          -0.00312000      1.05108800      0.24451900
C          -0.96321100     -0.09258600      0.63411700
C          -2.34734500      0.16800200      0.00547300
C          -0.41535700     -1.47958000      0.26803900
C          -3.48946400     -0.73350700      0.47979200
H           1.95909100      0.06299400      0.27706900
H           2.02438600      1.82155300      0.48552800
H           1.48988100      0.78858900      1.83300800
H          -0.43077500      1.99536700      0.62760300
H          -0.00107300      1.14870400     -0.85867500
H          -1.08411100     -0.06491500      1.73681100
H          -2.62385300      1.21985600      0.20680000
H          -2.25278800      0.08310700     -1.09517400
H           0.51090400     -1.71146300      0.81644100
H          -0.19205900     -1.54587100     -0.81274600
H          -1.13766400     -2.27531100      0.50893000
H          -4.43867400     -0.43517200      0.00508600
H          -3.32283400     -1.79394600      0.22723500
H          -3.62841900     -0.66653200      1.57313400
