23
b3lypvdz=-276.18795054629 
C           2.17257100     -0.28465000      0.46538500
C          -0.98549600     -0.16546100      0.83494000
C           3.66839600     -0.58283000      0.58679500
C          -2.22618700     -0.01053000     -0.05484500
C          -0.16569300     -1.39948400      0.40081300
C          -1.38278000     -0.23606200      2.31550300
C           1.29051400     -1.47096800      0.89215600
H           1.92792500      0.60300900      1.07414600
H           1.93807200     -0.00813500     -0.57950500
H          -0.36150900      0.73343400      0.68166700
H           4.28214600      0.28863200      0.30507700
H           3.94195700     -0.86676900      1.61767000
H           3.96034600     -1.41965400     -0.06994100
H          -2.85211800     -0.91994100     -0.02236400
H          -2.85564700      0.83607000      0.26754100
H          -1.94194400      0.16238600     -1.10648200
H          -0.14899500     -1.43620800     -0.70446900
H          -0.70426900     -2.30888600      0.72786000
H          -1.86394900      0.69884500      2.64931500
H          -2.10595300     -1.05264900      2.48727800
H          -0.51404700     -0.41761900      2.96884500
H           1.73678600     -2.40013200      0.49369500
H           1.32467200     -1.57529600      1.99262400
