20
b3lypvdz=-236.903743087192 
C           2.15976000     -0.29441400      0.50889900
C          -0.94857200     -0.06239000      0.55736200
C           3.61151500     -0.59296800      0.89114200
C          -2.41158300     -0.06909900      0.10572400
C          -0.19951500     -1.34559900      0.17217600
C           1.22123100     -1.48680500      0.74353000
H           1.79705400      0.57532300      1.08565500
H           2.11710100      0.01277200     -0.55334100
H          -0.43206500      0.81067300      0.12010500
H          -0.90290800      0.07842900      1.65442400
H           4.26365400      0.28324600      0.73864300
H           3.69776200     -0.89216300      1.95112100
H           4.02175200     -1.41963100      0.28634000
H          -2.95841900     -0.92576100      0.53587000
H          -2.94054700      0.84645200      0.41782700
H          -2.49656100     -0.14661800     -0.99284600
H          -0.16399400     -1.41695100     -0.93210900
H          -0.79251300     -2.21768600      0.50747500
H           1.68049800     -2.39095300      0.30233800
H           1.16444900     -1.68265500      1.83166300
