20
b3lypvdz=-236.902217796102 
C           2.11244000     -0.46429800      0.29745700
C           3.55749400     -0.40560100      0.82503700
C           4.37072200      0.82600700      0.33356600
C           3.68277500      2.15741900      0.68163600
C           4.27492900     -1.73724600      0.55016300
C           4.73966600      0.79141200     -1.15973800
H           1.51977900      0.41130800      0.60750600
H           1.59861500     -1.35799200      0.69026600
H           2.08048400     -0.52422500     -0.80511700
H           3.49896500     -0.29963900      1.92622600
H           5.32090500      0.80065800      0.90178500
H           2.79299600      2.33461300      0.05478800
H           4.37327400      3.00267000      0.51818400
H           3.36169100      2.18561600      1.73767200
H           4.26370500     -1.99351700     -0.52335900
H           5.32715100     -1.70774600      0.88310200
H           3.77932300     -2.56141300      1.08999800
H           5.36869700     -0.07650600     -1.41417300
H           3.84196400      0.76122800     -1.80121900
H           5.30932700      1.69555100     -1.43527900
