20
b3lypvdz=-236.904603712157 
C           1.24883000      0.85033000      0.72589000
C          -0.20562000      0.90981800      0.24041500
C           2.05473900     -0.39801900      0.31456100
C           3.47043500     -0.33896400      0.90660200
C          -0.83493900      2.29001600      0.45165900
C           1.37005400     -1.72369600      0.67927900
H           1.78235700      1.73770400      0.33484600
H           1.26706700      0.95429200      1.82932700
H          -0.80807400      0.14482500      0.76177700
H          -0.25207100      0.64924100     -0.83431000
H           2.14941800     -0.37189400     -0.78885300
H           3.97568800      0.60814700      0.65087100
H           3.44320600     -0.41521200      2.00891100
H           4.09884400     -1.16427400      0.53259500
H          -1.88346000      2.31708800      0.11174700
H          -0.81714200      2.57988900      1.51703400
H          -0.28489400      3.06563600     -0.10802100
H           0.41264700     -1.85359300      0.15021300
H           2.01379500     -2.57769000      0.40727800
H           1.16732000     -1.79254500      1.76338000
