23
b3lypvdz=-276.186919255393 
C           1.97917600     -0.35104900      0.44826600
C           3.43071000     -0.33738300      0.97425900
C          -0.20331600     -1.66510400      0.20826800
C           4.29039100      0.78141900      0.34343300
C           3.47335600     -0.30420100      2.50852300
C           1.27442700     -1.70565400      0.59907500
C           3.84164900      2.22280100      0.60966500
H           1.38932000      0.42708300      0.96867500
H           1.96884400     -0.06823600     -0.62131700
H           3.89704900     -1.28779800      0.64879800
H          -0.76889600     -0.97105700      0.85224600
H          -0.33663500     -1.32132800     -0.83279500
H          -0.67669100     -2.65664400      0.29734500
H           4.32714200      0.61304000     -0.74800500
H           5.32867500      0.66185900      0.70344000
H           2.98756300     -1.18745200      2.95255600
H           4.51000900     -0.27429100      2.88240800
H           2.95190100      0.58204100      2.90943200
H           1.80459200     -2.45156600     -0.02140300
H           1.36493000     -2.06549300      1.63994200
H           2.83053700      2.42083100      0.21526400
H           4.52380000      2.93846000      0.12320600
H           3.83246800      2.46222200      1.68602000
