21
b3lypvdz=-274.993735007899 
C           1.37358700      0.97912400      0.68243700
C           2.08783800     -0.35384000      0.40064400
C           2.16684000      2.18499000      0.15301100
C           3.54096500     -0.38206200      0.92228000
C           4.31723100      0.83862900      0.37900500
C           3.61217100     -0.49507300      2.45276800
C           3.62021500      2.18198700      0.65560100
H           0.36818500      0.96152700      0.22787300
H           1.21700200      1.09705600      1.77076600
H           1.51558700     -1.19089300      0.83751600
H           2.10179100     -0.52434700     -0.69269100
H           2.16467800      2.16396100     -0.95413300
H           1.66600700      3.12368200      0.44793700
H           4.02455500     -1.28788800      0.51206000
H           4.43235600      0.71917800     -0.71486400
H           5.33848900      0.85244700      0.79818200
H           3.06459700     -1.38361100      2.80999200
H           4.65751400     -0.58890600      2.79191900
H           3.17845400      0.37920900      2.96469800
H           4.18719300      2.99598900      0.17149200
H           3.63834600      2.40044000      1.73970800
