21
b3lypvdz=-312.093140869241 
C           1.31660600      0.94420300      0.69085900
C          -0.14561700      0.93458500      0.20978400
C           2.15853200      2.10782200      0.16519300
C           4.43008200      0.87490800      0.35855300
C          -0.93577200      2.21250900      0.51258700
C           3.60823700      2.12678300      0.68195400
O           2.12235100      2.02080700     -1.26592600
H           1.79112400     -0.00269300      0.38229300
H           1.34530600      0.97162900      1.79629000
H          -0.65309000      0.07452900      0.68204800
H          -0.15944800      0.75027700     -0.87746200
H           1.68238500      3.05417500      0.49633900
H           4.07256200     -0.00535000      0.91634900
H           4.36810800      0.63977600     -0.71641300
H           5.49059800      1.02308100      0.62057900
H          -1.99757000      2.09257900      0.23963000
H          -0.89399900      2.47463500      1.58545300
H          -0.54827800      3.07179700     -0.05881600
H           4.10329200      3.00971800      0.23346000
H           3.60130100      2.31117300      1.77220800
H           2.59139000      2.79225800     -1.61656500
