21
b3lypvdz=-312.085946298019 
C           1.36534700      0.90803700      0.66932800
C           2.16473900      2.13332700      0.21418100
C           4.47533600      0.92059800      0.36291400
C           5.49857700     -0.59300400     -1.40320700
C           3.62914000      2.16127200      0.69371800
C           4.81907200      0.74347100     -1.11888000
O           5.89416000     -0.61223300     -2.76794200
H           0.29929300      1.00638800      0.40557600
H           1.73045900     -0.01946600      0.19845700
H           1.42646000      0.76677100      1.76323500
H           2.12182900      2.20522300     -0.88760000
H           1.66818200      3.04518900      0.59166000
H           3.95057900      0.01933300      0.73139500
H           5.41418500      0.96797900      0.94260100
H           4.79275200     -1.41818200     -1.16964800
H           6.36949800     -0.72116700     -0.72590400
H           4.12253700      3.05616500      0.27107500
H           3.63605100      2.30127200      1.79034500
H           3.91344900      0.81646000     -1.74555500
H           5.49337300      1.55213800     -1.45316100
H           6.29168100     -1.47507200     -2.95118800
