8
b3lypvdz=-79.764239737655 
C           1.37519400      0.95758000      0.72944400
C          -0.07169500      0.94842000      0.22085600
H           1.90404000      0.02974400      0.45203700
H           1.94460000      1.80133600      0.30531800
H           1.41338800      1.04778300      1.82875400
H          -0.64110200      0.10466500      0.64498200
H          -0.60053900      1.87625700      0.49826200
H          -0.10988700      0.85821600     -0.87845400
