23
b3lypvdz=-276.187596591107 
C           1.26829500      0.86694100      0.67739900
C          -0.21205300      0.90789400      0.27232500
C           2.04461500     -0.40132400      0.26783600
C           3.49721000     -0.39290700      0.79088200
C           4.31405700      0.86489500      0.47876000
C          -0.82013700      2.30278400      0.44537600
C           1.35400300     -1.70494800      0.69584800
H           1.76665000      1.73855100      0.21781300
H           1.34999600      1.01848500      1.77257500
H          -0.78862100      0.17661500      0.86568900
H          -0.31830800      0.59308200     -0.78329800
H           2.09209500     -0.40207700     -0.84003700
H           3.48392200     -0.55562900      1.88638800
H           4.01331300     -1.27217900      0.36468900
H           3.92873500      1.74929000      1.01080100
H           4.30291900      1.09836900     -0.60054900
H           5.36582800      0.73523400      0.78223800
H          -1.88723800      2.32108300      0.16773900
H          -0.73662700      2.64942200      1.49059000
H          -0.29915800      3.04180900     -0.18687400
H           0.37548900     -1.83767500      0.20888900
H           1.97594400     -2.57631900      0.42815700
H           1.19326900     -1.73679800      1.78846100
