17
b3lypvdz=-197.619944476361 
C           0.04652000      0.98246900      0.24718900
C          -0.95830200     -0.11169500      0.62842500
C          -2.34096000      0.18553300      0.01719300
C          -0.43380400     -1.50151200      0.24254200
C          -3.48404800     -0.71056700      0.49825300
H           1.03397200      0.79935900      0.70206700
H          -0.29861000      1.97508200      0.58236600
H           0.18601300      1.03102700     -0.84790800
H          -1.07176400     -0.09048500      1.73129900
H          -2.59805500      1.23760500      0.24105200
H          -2.26135900      0.11786400     -1.08605700
H           0.54769900     -1.69948800      0.70457100
H          -0.31178400     -1.58502400     -0.85298600
H          -1.11551000     -2.30437100      0.56436300
H          -4.44101000     -0.39611000      0.05087000
H          -3.33117100     -1.76838500      0.22655200
H          -3.59612900     -0.66000400      1.59580900
