17
b3lypvdz=-197.617665799197 
C           2.10819200     -0.35802100      0.33279400
C           3.51698400     -0.46153800      0.93465000
C           5.57066000     -0.58026100     -1.45326300
C           4.30659600     -1.70945500      0.50069000
C           4.72196000     -1.76914100     -0.98181800
H           1.57132300      0.51855800      0.73279000
H           1.50741000     -1.25284800      0.57394700
H           2.13323900     -0.25690600     -0.76616000
H           4.09202400      0.44997500      0.69226500
H           3.43096400     -0.47449000      2.03652900
H           4.98800700      0.35551500     -1.48150700
H           5.95993200     -0.75402100     -2.47043400
H           6.43677100     -0.41694800     -0.78862700
H           5.22185300     -1.77840200      1.11840000
H           3.71034000     -2.60977300      0.74231300
H           3.82658300     -1.85593500     -1.62378300
H           5.29486100     -2.70120900     -1.13978600
