23
b3lypvdz=-276.187088137365 
C           1.40121000      0.71852400      0.66315000
C          -0.05184700      0.99363100      0.26332800
C          -1.08363100     -0.03377300      0.77162000
C          -2.45125200      0.23654500      0.11164100
C          -3.61217600     -0.69420700      0.49929500
C          -1.16683800     -0.06143100      2.30247300
C          -3.34148900     -2.18567900      0.27904300
H           1.70608700     -0.30384100      0.37750900
H           2.08820800      1.41737000      0.15966000
H           1.56442700      0.82463300      1.74833500
H          -0.34976800      1.99920600      0.61815200
H          -0.11583100      1.03140300     -0.83943400
H          -0.73873600     -1.03078500      0.43287500
H          -2.74794500      1.28008500      0.33200700
H          -2.31310400      0.18593800     -0.98525400
H          -4.49312600     -0.39507800     -0.09611800
H          -3.89610600     -0.52592100      1.55365300
H          -1.49039500      0.91770800      2.70090800
H          -1.88556500     -0.81521800      2.65944100
H          -0.19444600     -0.30361500      2.75929400
H          -2.53384300     -2.55958600      0.92910700
H          -4.23742300     -2.79007700      0.49790100
H          -3.04481200     -2.39123500     -0.76478400
