17
b3lypvdz=-197.61976787506 
C          -0.03232700      1.10252400      0.23467400
C          -0.87483800     -0.11721600      0.63333200
C          -2.29738900     -0.00574600      0.06619000
C          -0.24013700     -1.46176700      0.22441700
C           1.18866600     -1.70020200      0.72542600
H           0.94854600      1.11028200      0.73510900
H          -0.54815000      2.03730400      0.51286200
H           0.14489500      1.13110200     -0.85578200
H          -0.95188300     -0.11443500      1.73920100
H          -2.92758300     -0.85472400      0.38005900
H          -2.79228400      0.92017100      0.40382300
H          -2.28181100      0.00678700     -1.03912600
H          -0.26084700     -1.54440700     -0.88011000
H          -0.89056600     -2.27410200      0.59810100
H           1.90602900     -0.98923400      0.28483200
H           1.53335000     -2.71345700      0.46043300
H           1.25533000     -1.60228000      1.82365900
