20
b3lypvdz=-236.903593567583 
C           1.36569200      0.88012300      0.80704700
C          -0.08357300      0.98395700      0.29865800
C           2.10796100     -0.40691900      0.42542600
C          -0.97098300     -0.23191900      0.58746200
C           3.60196500     -0.37575700      0.76966700
C           4.30411500     -1.71102900      0.51102600
H           1.93102200      1.75046200      0.42366500
H           1.37871800      0.97790900      1.91027400
H          -0.54366600      1.88244900      0.74724500
H          -0.07328200      1.16456900     -0.79294400
H           1.64200900     -1.26802200      0.93899700
H           1.98994900     -0.60560300     -0.65863100
H          -2.01299600     -0.04093600      0.28120400
H          -0.62890800     -1.12503500      0.03853500
H          -0.97888000     -0.49059100      1.66122400
H           4.09318400      0.42578100      0.18722600
H           3.72823200     -0.09223200      1.83232400
H           4.22760500     -2.00474200     -0.55096800
H           5.37477600     -1.66871400      0.77205400
H           3.84975800     -2.52055000      1.10780800
