23
b3lypvdz=-276.187042116664 
C           1.40744900      0.94013900      0.67839400
C           2.18134300     -0.35374100      0.35640200
C           2.07533700      2.23955800      0.20815100
C           3.61003600     -0.47016400      0.92623800
C           3.61520700     -0.38417100      2.46059400
C           4.29664800     -1.77516400      0.46774300
C           4.67138500     -1.82637300     -1.02058500
H           0.41220900      0.86102300      0.20474200
H           1.21555100      1.00637900      1.76483500
H           1.59146500     -1.21263700      0.73116300
H           2.21698900     -0.46672900     -0.74314300
H           3.00995000      2.44616700      0.75629100
H           2.31836900      2.20342200     -0.86875500
H           1.40475900      3.10077300      0.37150100
H           4.21772800      0.36960900      0.53603800
H           2.97560900     -1.16723400      2.90433900
H           4.63498000     -0.52058200      2.85858200
H           3.24862700      0.58969600      2.82428000
H           5.21960700     -1.91182100      1.05960400
H           3.64398600     -2.63300000      0.71970400
H           5.31607700     -0.97370200     -1.29772300
H           3.78507700     -1.80433000     -1.67551300
H           5.23011100     -2.74871800     -1.25358400
