14
b3lypvdz=-158.333846079895 
C           4.32739000      0.82131900      0.34580300
C           3.64715400      2.16547300      0.63577500
C           3.60364100     -0.40589500      0.92362000
C           3.54589300     -0.45002900      2.45475700
H           4.41115100      0.69401600     -0.74905000
H           5.36297500      0.84793300      0.73397900
H           2.60200900      2.16753700      0.27878800
H           4.17319100      2.98980600      0.12683200
H           3.63719100      2.39686000      1.71452500
H           2.57531600     -0.44580600      0.51741300
H           4.11177100     -1.31669800      0.55769600
H           3.07488000     -1.38374200      2.80528100
H           4.55801400     -0.40049300      2.89301800
H           2.95922400      0.38542000      2.87076100
