20
b3lypvdz=-236.903480267918 
C          -0.93844300     -0.20280600      0.76058300
C          -2.25566300      0.24454500      0.08596300
C          -0.44726000     -1.56055100      0.23546300
C          -3.50727500     -0.57054300      0.43661900
C          -4.74848700     -0.14246300     -0.35018100
C          -1.02343200     -0.20904500      2.29426700
H          -0.17743900      0.54909700      0.47660200
H          -2.44285400      1.30617900      0.33683400
H          -2.10711200      0.21290500     -1.01088900
H           0.51705000     -1.83607400      0.69400300
H          -0.30736800     -1.53979300     -0.85845200
H          -1.16049400     -2.36967400      0.46817400
H          -3.31941800     -1.64392200      0.25121400
H          -3.71804000     -0.47670800      1.51741200
H          -5.62842700     -0.74037600     -0.06242600
H          -4.99169300      0.91932100     -0.16862000
H          -4.60243500     -0.26750700     -1.43781200
H          -1.34864300      0.76734200      2.69318500
H          -1.73459300     -0.96783800      2.66119200
H          -0.04247600     -0.44538900      2.74027100
