23
b3lypvdz=-276.184002974432 
C           2.15848700     -0.44710900      0.55422600
C          -0.96325600     -0.12907500      0.54059400
C          -2.36617500      0.09722800     -0.05842200
C          -0.21172300     -1.36713900      0.02619000
C          -3.54594000     -0.64123200      0.59780000
C          -3.54392100     -2.16832200      0.50592600
C           1.16483300     -1.60724300      0.66661500
H           1.82487100      0.43898500      1.11829200
H           3.14515000     -0.73676500      0.95139900
H           2.30081300     -0.13214500     -0.49452000
H          -0.35186300      0.76133100      0.31256600
H          -1.03847800     -0.16588600      1.64532700
H          -2.59326500      1.17664800      0.00984300
H          -2.33868800     -0.13726500     -1.14051100
H          -0.09088100     -1.27329600     -1.07061400
H          -0.82292500     -2.27004500      0.18554200
H          -4.47306800     -0.26223600      0.13088500
H          -3.60585200     -0.34178500      1.66136200
H          -2.71258400     -2.62014800      1.06848700
H          -4.47636900     -2.58867300      0.91729700
H          -3.45685600     -2.51104800     -0.53966300
H           1.60861100     -2.50283100      0.19625300
H           1.02877800     -1.86435200      1.73392700
