21
b3lypvdz=-312.086726696732 
C           1.30255500      0.93924800      0.71054600
C          -0.16064400      0.95213000      0.21928100
C           2.04945300     -0.36453000      0.35317500
C           2.09383500      2.13917200      0.18662800
C          -0.90731700      2.27154200      0.46228500
C           1.33392200     -1.67510400      0.70673300
O           2.05007500      2.11657500     -1.24194500
H           1.29021900      1.03425200      1.81529200
H          -0.70864200      0.14102700      0.72861600
H          -0.18335200      0.72057600     -0.85937100
H           3.02884700     -0.34308500      0.86547700
H           2.26901200     -0.35360100     -0.72840600
H           3.14125500      2.07848400      0.54800000
H           1.66403100      3.08223900      0.57805500
H          -1.97452700      2.16785700      0.20304100
H          -0.84868500      2.58241100      1.52121500
H          -0.50057200      3.08816400     -0.15572000
H           0.43751000     -1.83491400      0.08638900
H           2.00547400     -2.53369200      0.53504500
H           1.02066500     -1.69994000      1.76587900
H           2.55008500      2.87979000     -1.56171600
