20
b3lypvdz=-236.902930515114 
C           0.01981100      1.09349900      0.18456800
C          -0.91363100     -0.04644300      0.61584900
C          -2.31525200      0.17032800      0.01052100
C          -0.35524100     -1.44332700      0.27077200
C          -3.42621900     -0.75111800      0.51857800
C           1.07362100     -1.72374300      0.75103500
H           0.99756600      1.04579800      0.68710200
H          -0.42740600      2.07163600      0.42945000
H           0.19990500      1.07486500     -0.90563100
H          -1.01296700      0.00805000      1.71983200
H          -2.61273700      1.21759000      0.20387900
H          -2.23761600      0.07320800     -1.09059600
H          -0.40481700     -1.58182400     -0.82739900
H          -1.02520500     -2.20715400      0.70121900
H          -4.39107600     -0.47989200      0.05945600
H          -3.23937700     -1.81087300      0.27829300
H          -3.54400200     -0.67039300      1.61355900
H           1.81317800     -1.08322400      0.24511700
H           1.35617600     -2.76954900      0.54577800
H           1.17798700     -1.55713200      1.83791700
