17
b3lypvdz=-197.617598871938 
C           1.35633200      0.92939000      0.62045300
C           2.11531900     -0.38431900      0.39961500
C           3.56638600     -0.38325500      0.91607700
C           4.46626200      0.75637600      0.41228100
C           4.69556100      0.77206500     -1.10154200
H           0.29712700      0.83028300      0.32960300
H           1.78098800      1.75427200      0.02445100
H           1.38559400      1.24165600      1.67981200
H           1.57419700     -1.20466400      0.90426000
H           2.09688700     -0.63553000     -0.67690900
H           3.55058300     -0.35100900      2.02173500
H           4.03450100     -1.34948500      0.64691400
H           4.03943300      1.72650000      0.72737900
H           5.44012500      0.68020500      0.92735400
H           5.12051300     -0.18533700     -1.45218400
H           3.75864400      0.94097900     -1.65847900
H           5.39834900      1.56967100     -1.39311900
