23
b3lypvdz=-276.185066440674 
C           1.38021500      0.96862900      0.69511800
C           2.07889900     -0.34134500      0.29291000
C           3.53312300     -0.41170800      0.84264000
C          -0.22271600     -1.57036500      0.28141900
C           4.37882100      0.80501900      0.42358500
C           1.25364600     -1.58216600      0.70630500
C           4.25563000     -1.70783100      0.43196800
H           0.36717000      1.03259100      0.26889900
H           1.92834800      1.84887800      0.32826700
H           1.29242400      1.05665500      1.79353500
H           2.14913000     -0.34918300     -0.81501500
H           3.46759100     -0.40417000      1.94910800
H          -0.80474100     -0.80167900      0.81390800
H          -0.32963800     -1.38521700     -0.80244100
H          -0.69476700     -2.54299500      0.50202800
H           3.99822400      1.74435000      0.85214000
H           4.39942100      0.91706700     -0.67547600
H           5.42020100      0.69504000      0.77005900
H           1.72334200     -2.47883700      0.27156900
H           1.31205300     -1.70632700      1.80542000
H           4.26728800     -1.82518200     -0.66681600
H           5.30212800     -1.69636300      0.78012900
H           3.78470700     -2.60376200      0.86374000
