23
b3lypvdz=-276.191376026528 
C           1.32869200      0.84559400      0.67802100
C          -0.14067300      0.75287400      0.25313600
C           2.13184600     -0.42178700      0.37148800
C           3.60067100     -0.35288700      0.80319400
C          -0.96854900      1.99200800      0.60976600
C          -2.42303900      1.90458700      0.14041100
C           4.36910100     -1.63939700      0.49527600
H           1.80093800      1.71290400      0.17895100
H           1.38615000      1.06014000      1.76301600
H          -0.60072700     -0.13770700      0.72225700
H          -0.19597300      0.57507400     -0.83869100
H           1.65103300     -1.28634200      0.86768700
H           2.07885700     -0.63676800     -0.71375400
H           4.09125400      0.50331400      0.30478800
H           3.65458200     -0.13791100      1.88738000
H          -0.93878900      2.14062200      1.70567300
H          -0.49095600      2.88908300      0.17358400
H          -2.92284200      1.01016000      0.55017600
H          -2.48609300      1.83986100     -0.96011700
H          -3.00925600      2.78291500      0.45699900
H           4.40355900     -1.83322600     -0.59098900
H           5.40733000     -1.59480300      0.86222100
H           3.88778300     -2.51270900      0.96792700
