20
b3lypvdz=-236.900079137201 
C          -0.92482900     -0.25768100      0.76493400
C          -2.23143100      0.14270400      0.04119300
C          -0.23325900     -1.54004800      0.28542700
C          -3.50177700     -0.58428100      0.53444900
C          -3.57448000     -2.09937600      0.33033300
C          -2.45384100      1.65833600      0.16481600
H          -0.20529800      0.57285100      0.64154600
H          -1.12136900     -0.32058400      1.85321000
H          -2.10220900     -0.09214200     -1.03544900
H           0.72001200     -1.69023200      0.81805200
H          -0.00186000     -1.48422100     -0.79298900
H          -0.84569000     -2.43990800      0.44438600
H          -4.36428400     -0.12311900      0.01995500
H          -3.63911000     -0.35286400      1.60892900
H          -2.83798600     -2.64451400      0.93911000
H          -4.57049600     -2.48019400      0.61187000
H          -3.39893700     -2.37680800     -0.72379600
H          -1.61680400      2.23105900     -0.26622900
H          -3.37578900      1.97634700     -0.34983400
H          -2.54926300      1.95567500      1.22498900
