23
b3lypvdz=-276.184865280202 
C           1.34429400      0.94414100      0.70702800
C          -0.08585400      0.99707500      0.14107500
C           2.06947700     -0.38213100      0.35007400
C           2.13316100      2.18272400      0.24539400
C           3.50823800     -0.47429700      0.91360500
C           3.63479400     -0.39871800      2.44147700
C           1.25664000     -1.63126100      0.74140800
H           1.25713200      0.99868000      1.80972700
H          -0.73678800      0.22767700      0.58378100
H          -0.54971300      1.97567300      0.35321800
H          -0.08957600      0.85515200     -0.95551100
H           2.16800300     -0.39947300     -0.75418700
H           3.10678900      2.27030100      0.75244700
H           2.32043300      2.15532100     -0.84349900
H           1.56967700      3.10605700      0.46360300
H           4.13670100      0.31260700      0.46182600
H           3.94480900     -1.42904300      0.56727100
H           3.04226500     -1.17926500      2.94538400
H           4.68508900     -0.53437300      2.74915300
H           3.30248400      0.57721600      2.83444900
H           0.33878600     -1.72564100      0.14177700
H           1.85009700     -2.54656200      0.57222200
H           0.96016100     -1.61525900      1.80467800
