19
b3lypvdz=-310.892056591023 
C          -2.30837200      0.10597700      0.15663800
C          -3.63335200     -0.59884800      0.48152900
C          -4.78715000      0.01339300     -0.33476500
C          -6.17809600     -0.51071800      0.02313000
C          -3.49519700     -2.11396700      0.26794000
O          -7.21535500      1.22659900     -1.29963600
C          -7.32662600      0.24571300     -0.60085800
H          -1.47775200     -0.31234100      0.74916400
H          -2.36152500      1.18822600      0.36668700
H          -2.05097500     -0.01695600     -0.91148200
H          -3.85413500     -0.42130900      1.55393300
H          -4.78952500      1.10950700     -0.20189200
H          -4.60405300     -0.15434700     -1.41338200
H          -6.31552500     -1.57861100     -0.23825800
H          -6.35457300     -0.47286600      1.12032000
H          -2.67213300     -2.52604700      0.87513700
H          -4.41020900     -2.66407100      0.54423500
H          -3.27170400     -2.34213700     -0.79091400
H          -8.34104200     -0.17159700     -0.34912500
