20
b3lypvdz=-236.905073391126 
C          -2.35373100      0.13345500      0.22309200
C          -3.70713800     -0.55706300      0.47164400
C          -4.81026600     -0.07184900     -0.47720500
C          -3.54786300     -2.08038100      0.39236300
C          -0.89973300      2.21639200      0.33939800
C          -2.31483400      1.64757400      0.45929900
H          -1.59975000     -0.33795800      0.88043800
H          -2.02263300     -0.08552000     -0.81205200
H          -4.02357400     -0.30594700      1.50379000
H          -5.76216400     -0.58889100     -0.26949600
H          -4.99347600      1.01031600     -0.37942300
H          -4.54750200     -0.27400400     -1.53196400
H          -2.79386500     -2.44438400      1.10914600
H          -4.49583100     -2.59937300      0.61088600
H          -3.21926700     -2.39284400     -0.61555300
H          -0.48304100      2.03851000     -0.66778900
H          -0.21496500      1.73660500      1.05906900
H          -0.87338800      3.30284700      0.52503800
H          -2.97895400      2.16592800     -0.25504100
H          -2.72342500      1.87208700      1.46305700
