23
b3lypvdz=-276.185808310847 
C          -0.91662400     -0.16389600      0.59556900
C          -2.27034200      0.06937700     -0.09849400
C          -0.26958500     -1.54911700      0.44763500
C          -3.51510200     -0.67447800      0.43538300
C          -4.79635800      0.02265700     -0.04835200
C          -3.56528700     -2.15829200      0.03658000
C           1.19877300     -1.55677300      0.87757800
H          -0.21199800      0.58327800      0.18451600
H          -1.00578800      0.08261000      1.67148900
H          -2.47640400      1.15339100     -0.02705200
H          -2.16667900     -0.14745200     -1.17998900
H          -0.34749800     -1.88284800     -0.60370200
H          -0.82378700     -2.29417200      1.04170500
H          -3.49562000     -0.60990700      1.54128800
H          -5.69542900     -0.49594200      0.32445400
H          -4.84666300      1.06959200      0.29420600
H          -4.85079300      0.02832100     -1.15192500
H          -2.73373700     -2.74071500      0.45637300
H          -4.50154300     -2.62684800      0.38375100
H          -3.52912200     -2.26828600     -1.06260400
H           1.79860500     -0.86303800      0.26495300
H           1.64780000     -2.55880700      0.77662700
H           1.31298000     -1.24305500      1.93031100
