14
b3lypvdz=-158.333519369709 
C           4.32265500      0.83431400      0.38021700
C           2.07324000     -0.45474900      0.32613000
C           3.68530200      2.19844700      0.67576500
C           3.51320200     -0.38597900      0.85290600
H           4.50088300      0.75038100     -0.70859600
H           5.31837900      0.79449400      0.85732500
H           1.45690200      0.37521900      0.70917400
H           1.58584000     -1.39294200      0.64025600
H           2.04465000     -0.41472100     -0.77750300
H           2.75853200      2.35195900      0.09914600
H           4.37594400      3.01572000      0.40741700
H           3.43831200      2.30555900      1.74716600
H           3.49457800     -0.40108900      1.95961800
H           4.05338100     -1.29971400      0.54448000
