12
b3lypvdz=-194.233313181996 
C           4.36450600      0.81413700      0.35708600
C           5.56219300     -0.57463300     -1.40321800
O           5.95230400     -0.55941600     -2.77811000
C           4.78011800      0.69779300     -1.11432800
H           3.73128500     -0.03520200      0.66910300
H           3.78844300      1.73688300      0.53595600
H           5.24680600      0.83563600      1.02056000
H           4.92716700     -1.45855200     -1.17702000
H           6.45462800     -0.62529600     -0.74430800
H           6.43416200     -1.37863200     -2.95538400
H           3.88856800      0.72263100     -1.76612600
H           5.40021900      1.56375100     -1.40781100
