20
b3lypvdz=-236.902840081245 
C           1.37174800      0.93049800      0.70700600
C          -0.08203900      0.92195600      0.18651900
C           2.05033600     -0.40036800      0.34275200
C           2.16478700      2.15888700      0.21479900
C          -0.90420400      2.18411100      0.47899700
C           3.63611100      2.20408700      0.65458100
H           1.32820500      0.99021100      1.81347200
H          -0.59730700      0.05223800      0.63285700
H          -0.07183500      0.74064000     -0.90620100
H           3.02815700     -0.51665100      0.83592500
H           1.42460300     -1.25413900      0.65463900
H           2.20697000     -0.48122700     -0.74805300
H           2.11169000      2.20699100     -0.89050600
H           1.66820500      3.07172700      0.58598400
H          -1.95714300      2.03913900      0.18400100
H          -0.88857800      2.43431700      1.55460100
H          -0.52805300      3.05863100     -0.07542300
H           4.23220200      1.40070700      0.19296400
H           4.10010400      3.16106200      0.36189600
H           3.73104000      2.10808300      1.75089000
