17
b3lypvdz=-197.617608894493 
C           2.16707400      2.23111500      0.23619000
C           3.65508300     -0.45590600      0.92674800
C           4.31381000      0.79072900      0.31192800
C           3.51079800     -0.42323600      2.45037000
C           3.64646400      2.14114800      0.62537700
H           1.54329900      1.52870300      0.81256700
H           2.01482200      2.00100300     -0.83351600
H           1.76829900      3.24265600      0.42007700
H           2.66044900     -0.61480300      0.47044200
H           4.25556000     -1.33610000      0.63439300
H           4.35397300      0.65617800     -0.78533500
H           5.36585200      0.84060000      0.65150500
H           3.09817900     -1.37129400      2.83342000
H           4.48431900     -0.25860200      2.94521400
H           2.83388700      0.38011500      2.78483500
H           4.20738200      2.93040900      0.09388300
H           3.75824900      2.37208500      1.70070200
