5
b3lypvdz=-189.683735788178 
O          -7.27532200      1.49549900     -0.58867400
O          -8.23646200     -0.46649800     -1.18454800
C          -7.28100800      0.29290100     -0.61247400
H          -8.90183000      0.15427900     -1.54121900
H          -6.50647800     -0.36678000     -0.16828600
