14
b3lypvdz=-158.333689593616 
C           4.36795800      0.83870700      0.36024700
C           3.62527400      2.14947000      0.67387500
C           2.16795200      2.17036500      0.19121200
C           4.76920600      0.68904400     -1.11359000
H           3.73678800     -0.01745300      0.66587600
H           5.28040200      0.78363600      0.98040500
H           4.17858800      2.99610900      0.22588200
H           3.63860300      2.31781400      1.76647400
H           1.58931900      1.35099100      0.65121100
H           2.09366500      2.05911800     -0.90450400
H           1.67195800      3.11778000      0.46301300
H           5.31564100     -0.25391300     -1.28489100
H           3.89112500      0.69029400     -1.78086900
H           5.43002200      1.51613800     -1.42764100
