17
b3lypvdz=-197.619015303674 
C           2.05225500     -0.35364100      0.32965100
C           3.49744300     -0.37277400      0.84755800
C           4.36714400      0.80135700      0.36763100
C           1.26361100     -1.60771500      0.72671800
C           4.80240000      0.69684700     -1.10072600
H           1.54054600      0.54463700      0.72325000
H           2.04399100     -0.25767500     -0.77173700
H           3.47134900     -0.37398900      1.95356900
H           3.98196100     -1.32316700      0.54987200
H           3.82216900      1.75049800      0.53139700
H           5.27287600      0.85513600      0.99755400
H           0.22746200     -1.56753500      0.35156900
H           1.73300200     -2.51701900      0.31319000
H           1.22129000     -1.72329900      1.82407100
H           5.35568000     -0.24221800     -1.28099100
H           3.94162300      0.71665400     -1.78985100
H           5.46839600      1.53050400     -1.37952500
