23
b3lypvdz=-276.188754372661 
C           1.39288500      0.96421200      0.70753900
C          -0.05788100      0.90590500      0.20875200
C           2.17420400     -0.28791000      0.26107900
C           2.05759300      2.28523500      0.29456100
C           3.61718000     -0.38639300      0.77597000
C           4.29551400     -1.73927200      0.49869300
C           4.71922800     -1.94507400     -0.95958000
H           1.36691300      0.94689800      1.81602800
H          -0.56112200     -0.01918800      0.53680600
H          -0.64778800      1.75771900      0.58654700
H          -0.10119300      0.93578800     -0.89565100
H           1.61881700     -1.17508800      0.62308900
H           2.15596500     -0.35339500     -0.84463900
H           3.05330800      2.41004100      0.74955600
H           2.17781800      2.35245100     -0.80217000
H           1.44213600      3.14380900      0.61344000
H           4.23543800      0.42018800      0.33925100
H           3.61463600     -0.20691100      1.86803500
H           5.18630300     -1.83474300      1.14436400
H           3.61202000     -2.55277400      0.80973300
H           5.43896500     -1.16924300     -1.27546700
H           3.86224900     -1.89872600     -1.65217900
H           5.21101000     -2.92202900     -1.10355700
