14
b3lypvdz=-158.335108514916 
C          -0.15517300      0.96933000      0.22416000
C          -0.90844700     -0.29069900      0.66967400
C          -0.93028200      2.26534700      0.49228700
C          -0.21978000     -1.59728500      0.25850800
H           0.82043200      1.01082700      0.74246400
H           0.07030900      0.89751700     -0.85653900
H          -1.93034300     -0.27141500      0.24668900
H          -1.02593400     -0.26975600      1.76932700
H          -1.88899900      2.27454200     -0.05384500
H          -1.15696700      2.38157700      1.56658100
H          -0.35539700      3.15032200      0.17189100
H           0.80290600     -1.65691700      0.66976300
H          -0.14594900     -1.67869800     -0.84007500
H          -0.77757700     -2.47559200      0.62351500
