23
b3lypvdz=-276.18566016772 
C           2.13938400     -0.49947700      0.46626500
C          -0.98330700     -0.08398400      0.73421200
C          -2.34512900      0.13750300      0.03684400
C          -0.29538900     -1.37671600      0.24846100
C          -3.45434200     -0.86997900      0.36095300
C          -1.09796400     -0.02363100      2.26470200
C           1.13957100     -1.62618100      0.74839300
H           1.91302700      0.41148600      1.04506100
H           3.16337400     -0.80972500      0.73369400
H           2.14406600     -0.21491300     -0.60081800
H          -0.34750500      0.76441200      0.41782400
H          -2.70542400      1.15143400      0.29037000
H          -2.17200100      0.13926300     -1.05568100
H          -0.28795000     -1.36481500     -0.85825300
H          -0.91278800     -2.24680300      0.53828300
H          -4.36053400     -0.64712200     -0.22573400
H          -3.15852300     -1.90575200      0.12321900
H          -3.73951100     -0.84189800      1.42605500
H          -1.62730500      0.88679300      2.59510700
H          -1.65120000     -0.88798900      2.66997000
H          -0.10638700     -0.01829100      2.74452900
H           1.50436100     -2.55208100      0.26902600
H           1.13217600     -1.83763500      1.83292000
