23
b3lypvdz=-276.188248719867 
C           1.37270100      1.00217500      0.61541600
C          -0.10695700      0.88080800      0.23651100
C           2.14254500     -0.30525100      0.38299600
C           3.59588300     -0.38661600      0.92390900
C           4.43172000      0.82382200      0.46616700
C           3.59119500     -0.44992200      2.46313300
C           4.22846200     -1.68376100      0.38395000
H           1.83563400      1.81536300      0.02912100
H           1.44955300      1.30930500      1.67434600
H          -0.61211000      0.11260300      0.84607800
H          -0.64612300      1.83068600      0.38855800
H          -0.22987900      0.58986300     -0.82199500
H           1.57146100     -1.13826600      0.83481000
H           2.15850400     -0.51233600     -0.70486500
H           4.04020400      1.76601500      0.88286700
H           4.43875400      0.92053300     -0.63329300
H           5.47813900      0.72828500      0.80254000
H           2.95373900     -1.27407500      2.82537400
H           4.60905100     -0.62359900      2.85199400
H           3.21715700      0.48235800      2.91699000
H           4.26290400     -1.68584700     -0.71879300
H           5.25964100     -1.80945500      0.75552100
H           3.64802000     -2.56628900      0.70316500
