21
b3lypvdz=-312.08719982747 
C           1.36587600      0.97844000      0.72866300
C          -0.09519600      0.91192900      0.23137200
C           2.08123100     -0.34576200      0.38936200
C           2.11681600      2.20842300      0.21211600
C           3.54889900     -0.44047700      0.81435100
C          -0.93642400      2.17188700      0.45145300
O           2.21557900      2.11960400     -1.20718800
H           1.35033000      1.08947300      1.83249500
H          -0.58096000      0.05738600      0.73534500
H          -0.08638000      0.67038200     -0.84601800
H           1.51082400     -1.16732600      0.85903200
H           2.01233300     -0.50368300     -0.70088600
H           3.11918100      2.25357100      0.68193000
H           1.57998500      3.12565300      0.52493300
H           4.18068400      0.27304200      0.26166700
H           3.68230100     -0.24303800      1.89306400
H           3.94889300     -1.44733100      0.60860800
H          -1.98523500      1.99474300      0.16088900
H          -0.93368700      2.49259700      1.50839900
H          -0.56882400      3.01463300     -0.15601300
H           2.69137300      2.90095400     -1.52157300
