14
b3lypvdz=-158.3334782076 
C           4.31406300     -1.70770400      0.46769300
C           2.09686200     -0.37859500      0.35003600
C           1.22581300     -1.58836600      0.71173400
C           3.54261100     -0.44553700      0.87488200
H           4.31645300     -1.84246100     -0.62862500
H           5.36346100     -1.65126600      0.80230500
H           3.87731100     -2.61457200      0.91704000
H           1.62215200      0.53783200      0.74513100
H           2.11469700     -0.26503900     -0.75083100
H           0.18407200     -1.43381300      0.38402700
H           1.58774200     -2.50970600      0.22643300
H           1.21364800     -1.76558200      1.80180400
H           4.08945100      0.44448800      0.51347100
H           3.53226300     -0.37097800      1.97930100
