20
b3lypvdz=-236.902755400426 
C          -0.90423700     -0.22962200      0.76827500
C          -2.21076300      0.21065400      0.05124400
C          -0.40349200     -1.58870800      0.25500900
C          -3.44613500     -0.62141900      0.43128400
C          -1.00150700     -0.24033800      2.30200000
C          -2.50192800      1.70864800      0.23442200
H          -0.13763400      0.52104900      0.49238200
H          -2.02757400      0.04524300     -1.02900500
H           0.56098700     -1.85534200      0.71870200
H          -0.26039800     -1.57550100     -0.83868100
H          -1.11354400     -2.39980600      0.49191600
H          -4.30222900     -0.34867200     -0.20741300
H          -3.27657200     -1.70407100      0.30763800
H          -3.74915700     -0.44347800      1.47786200
H          -1.32641500      0.73119500      2.71008300
H          -1.70971100     -1.00573200      2.66092000
H          -0.01979700     -0.47534300      2.74754800
H          -1.65081000      2.33125100     -0.09002500
H          -3.37967900      2.01388600     -0.35980700
H          -2.71860400      1.95920400      1.28754500
