20
b3lypvdz=-236.901761943458 
C           2.11581900     -0.41835600      0.23090100
C           3.54423500     -0.38565900      0.79609500
C           4.32960900      0.87999100      0.39611300
C           3.66912900      2.21265000      0.76446600
C           4.33167500     -1.67499800      0.46335900
C           4.65404100     -1.90679100     -1.01862500
H           1.50887500      0.41742900      0.61392800
H           1.60194800     -1.35097900      0.52033500
H           2.10025800     -0.35702800     -0.87152800
H           3.45471600     -0.36345600      1.90061900
H           4.52125600      0.86984300     -0.69226500
H           5.32303800      0.82720300      0.87841200
H           2.75388700      2.39553400      0.17812400
H           4.35530700      3.05337400      0.56824000
H           3.39016700      2.25008800      1.83238800
H           5.27585600     -1.66808800      1.03696000
H           3.75467400     -2.53703100      0.84672400
H           5.32349600     -1.13003300     -1.42335300
H           3.74539300     -1.91651300     -1.64263200
H           5.16151800     -2.87537900     -1.16126000
