21
b3lypvdz=-312.088521827273 
C           1.33673000      1.02834200      0.76017700
C           2.01339900     -0.27975200      0.32573300
C           3.47057300     -0.39346600      0.81609100
C          -0.19193200     -1.65063200      0.20612600
C           4.40431200      0.73444800      0.37063400
C           1.22615800     -1.52957800      0.76396100
O          -0.24154800     -1.58569300     -1.21608900
H           0.32537300      1.11695600      0.33329300
H           1.90620900      1.90374400      0.41109000
H           1.25275700      1.10223800      1.85978200
H           2.02850600     -0.28378600     -0.78051900
H           3.47803400     -0.46337600      1.92155800
H           3.87455900     -1.35649200      0.45310800
H          -0.82344300     -0.81607300      0.55381000
H          -0.66172200     -2.57864900      0.59199700
H           4.13273600      1.70122600      0.82461300
H           4.38009300      0.86748600     -0.72525700
H           5.44648200      0.52002800      0.65884500
H           1.79730700     -2.42733500      0.45118100
H           1.17944600     -1.58033500      1.86937100
H           0.31117300     -2.30590100     -1.55610500
