21
b3lypvdz=-312.085369902964 
C          -0.98365300     -0.26222800      0.64456700
C          -2.30146300      0.04121100     -0.09402300
C          -0.23864400     -1.53018600      0.22776300
C          -3.58762400     -0.58677600      0.48117500
C          -4.83020900      0.02016500     -0.18717400
C          -3.63462400     -2.11607600      0.37410600
O           0.19248500     -1.35933200     -1.11840500
H          -0.28404800      0.57394100      0.47276200
H          -1.16048600     -0.30032400      1.73569600
H          -2.44288700      1.13631100     -0.07469400
H          -2.18568500     -0.23897300     -1.15706600
H           0.62469700     -1.67775700      0.90823700
H          -0.88736500     -2.41996600      0.33284800
H          -3.62543200     -0.32096700      1.55672400
H          -5.75405600     -0.40016300      0.24336200
H          -4.86780300      1.11531400     -0.06412700
H          -4.84580900     -0.19546100     -1.27085600
H          -2.85686100     -2.60576200      0.97786100
H          -4.60717700     -2.50405000      0.72007600
H          -3.49632000     -2.44351300     -0.67151000
H           0.62956500     -2.17480800     -1.40142100
