17
b3lypvdz=-197.619897227284 
C          -0.82724400     -0.22027300      0.75736000
C          -2.12774800      0.20147300      0.04491100
C          -0.34205800     -1.58330000      0.24645200
C          -0.98551000     -0.24625600      2.28464400
C          -2.51881600      1.67127100      0.22812900
H          -0.05231500      0.53135700      0.50406700
H          -2.95062800     -0.45032100      0.39803300
H          -2.02214100     -0.00840600     -1.03540000
H           0.58051800     -1.90058700      0.76020100
H          -0.13514300     -1.55769400     -0.83651700
H          -1.10309000     -2.36448600      0.42314600
H          -1.30765700      0.72590400      2.69169500
H          -1.74107900     -0.99518700      2.58294900
H          -0.03914100     -0.52024600      2.78082100
H          -1.73334700      2.34438200     -0.15842300
H          -3.44666000      1.90864600     -0.31764800
H          -2.68364100      1.93282200      1.28648000
