20
b3lypvdz=-236.899160421275 
C          -0.93998800     -0.22405500      0.75565900
C          -2.27696200      0.09310600      0.03738800
C          -0.24325000     -1.49596100      0.24491600
C          -3.56002100     -0.62471300      0.49768800
C          -1.07552100     -0.24867200      2.28460000
C          -3.59380600     -2.14843900      0.34806300
H          -0.26514600      0.61577200      0.50076700
H          -2.46306500      1.17788400      0.14782100
H          -2.13545700     -0.07833700     -1.04722500
H           0.75832200     -1.59664500      0.69591800
H          -0.11373400     -1.46832900     -0.85029700
H          -0.80696400     -2.40870800      0.49355800
H          -4.39614200     -0.19537300     -0.08332700
H          -3.77091400     -0.36092500      1.54964400
H          -1.50414500      0.68972100      2.67642000
H          -1.72520500     -1.07295000      2.62476600
H          -0.09264600     -0.39365100      2.76353800
H          -2.87660900     -2.64999400      1.01624900
H          -4.59358400     -2.54419600      0.59382500
H          -3.35376200     -2.46333700     -0.68247100
