21
b3lypvdz=-312.088954391315 
C           2.16769700      2.28448800      0.16020600
C           3.61854100     -0.46234400      0.94589000
C           4.26988900      0.80489600      0.35778800
C           3.57217800     -0.45032000      2.47878000
C           3.59490600      2.14392100      0.69522500
C           4.34273200     -1.71600500      0.43701500
O           2.08633500      2.11951500     -1.25280200
H           1.51407300      1.50101700      0.57903400
H           1.73955500      3.25552700      0.48325400
H           2.57770000     -0.51546400      0.57197900
H           4.29248400      0.70263600     -0.74053000
H           5.32291200      0.84714600      0.69541100
H           3.13939500     -1.38673100      2.86864000
H           4.58764900     -0.35295700      2.90453500
H           2.96413800      0.37680600      2.87782900
H           4.20360700      2.96280100      0.26406300
H           3.59242600      2.32441500      1.78574300
H           4.32946900     -1.76880800     -0.66438700
H           5.39923100     -1.72299300      0.76214200
H           3.87316500     -2.63463500      0.82598200
H           2.64611700      2.80209200     -1.65319800
