23
b3lypvdz=-276.18464643093 
C           2.20120900      2.18146600      0.25661700
C           3.72249700     -0.43714600      0.95621300
C           4.42825000      0.81091400      0.38565200
C           5.53268200     -0.59153400     -1.50553600
C           3.39717100     -0.37834100      2.45326600
C           3.67833000      2.13554100      0.67039300
C           4.74810300      0.66879600     -1.11879200
H           1.58891000      1.46110400      0.82222900
H           2.05901900      1.96114500     -0.81494300
H           1.77617800      3.18122800      0.44660700
H           2.79455700     -0.63190400      0.38496100
H           4.36820400     -1.31223800      0.77426200
H           5.40276400      0.89367900      0.90771500
H           4.91750900     -1.50272200     -1.43139700
H           5.89791100     -0.52808000     -2.54386400
H           6.41311800     -0.73300900     -0.85490800
H           2.97445200     -1.33465100      2.80454100
H           4.30302200     -0.17673400      3.05194300
H           2.66285100      0.40627500      2.69514000
H           4.22018000      2.94886400      0.15423200
H           3.75474300      2.36917600      1.74705500
H           3.81275800      0.70962500     -1.70650500
H           5.32888200      1.55824700     -1.42418100
