20
b3lypvdz=-236.903173957426 
C           1.40698500      0.87905400      0.72285500
C          -0.05765600      0.94734500      0.24318600
C           2.08666400     -0.44381900      0.34053200
C           2.16905100      2.11742100      0.20908200
C          -0.96493400     -0.19741900      0.70673800
C           3.63360900      2.23417100      0.64885600
H           1.39645900      0.93574700      1.83130300
H          -0.48564800      1.90625400      0.58868000
H          -0.06693400      0.99431500     -0.86366600
H           3.11889900     -0.49453500      0.72203400
H           1.54936000     -1.30698500      0.76362400
H           2.12364600     -0.57480200     -0.75647000
H           2.11741100      2.13243200     -0.89729400
H           1.62157500      3.01666800      0.54773300
H          -2.01132000     -0.01174200      0.41241300
H          -0.66964100     -1.16314700      0.26495900
H          -0.94155800     -0.31375700      1.80472100
H           4.26022200      1.43248600      0.22556100
H           4.06655200      3.19138600      0.31381400
H           3.73225900      2.18972700      1.74804100
