23
b3lypvdz=-276.187223148054 
C          -0.93371700     -0.13796100      0.82847600
C          -2.24877600      0.27093000      0.12777200
C          -0.36532100     -1.46002000      0.27453600
C          -3.48175800     -0.59453200      0.41545200
C          -4.70402700     -0.18700200     -0.40971000
C          -1.07054800     -0.16400800      2.35953100
C           1.09932300     -1.72707300      0.63997100
H          -0.19823000      0.65058600      0.57188000
H          -2.48382800      1.31894400      0.39369900
H          -2.06415700      0.26861700     -0.96455700
H          -0.45990900     -1.44040600     -0.82699500
H          -0.99048900     -2.30545400      0.61824900
H          -3.25098000     -1.65729100      0.21753000
H          -3.73427200     -0.53080200      1.48962300
H          -5.58019100     -0.81034200     -0.16836200
H          -4.98212100      0.86531900     -0.22109000
H          -4.51279000     -0.28635000     -1.49317200
H          -1.45683500      0.79327100      2.75011600
H          -1.76727300     -0.95363400      2.68929200
H          -0.10521300     -0.35638000      2.85434800
H           1.74958300     -0.89418400      0.31757800
H           1.47324600     -2.63924200      0.14730600
H           1.24608300     -1.85368500      1.72562800
