18
b3lypvdz=-272.799613824269 
C          -0.96631600     -0.25011200      0.65894000
C          -2.31088300      0.05188700     -0.03020900
C          -0.24677800     -1.51518500      0.19313100
C          -3.56694700     -0.60225600      0.56898900
C          -3.67336400     -2.12224400      0.44289800
O           0.13318800     -1.32243600     -1.16533500
H          -0.27414000      0.58742800      0.46410000
H          -1.09719600     -0.29854500      1.75583700
H          -2.46875200      1.14407700      0.01153500
H          -2.21722700     -0.20846700     -1.09991300
H           0.64164900     -1.68537700      0.83458000
H          -0.90182400     -2.39986700      0.30450900
H          -4.44461900     -0.14811700      0.07475500
H          -3.64749200     -0.31794000      1.63532300
H          -2.90849300     -2.64779200      1.03591500
H          -4.65419600     -2.48067900      0.79613200
H          -3.55529800     -2.44746500     -0.60496800
H           0.54668900     -2.13681000     -1.48411900
