23
b3lypvdz=-276.185736595094 
C           2.13326500     -0.48996700      0.33539100
C           3.54574500     -0.37878000      0.93397500
C           4.37177500      0.82771500      0.40454500
C           5.52494200     -0.56519700     -1.47541800
C           3.48427800     -0.39934200      2.46940300
C           3.70611100      2.19221400      0.65170300
C           4.77589200      0.71556900     -1.08286100
H           1.48910800      0.34923600      0.65045000
H           1.64250400     -1.41695200      0.67717000
H           2.14447200     -0.50900700     -0.76733500
H           4.09730200     -1.28813200      0.63467800
H           5.31632100      0.81658900      0.98310400
H           4.87129100     -1.45221600     -1.46539300
H           5.94290600     -0.48014600     -2.49228400
H           6.36633700     -0.76498900     -0.78958100
H           2.99029300     -1.31698600      2.83156800
H           4.49355200     -0.36592000      2.91297400
H           2.91305900      0.45300900      2.87480400
H           2.80839500      2.32600700      0.02544100
H           4.40493900      3.00761300      0.39832300
H           3.40343600      2.33145800      1.70239800
H           3.88221900      0.83608500     -1.72351200
H           5.41905900      1.58414100     -1.31504700
