15
b3lypvdz=-233.523614658852 
C           4.42289200      0.92295600      0.40604900
C           5.51812600     -0.60954800     -1.34609500
C           4.74807900      0.68582900     -1.06946400
C           4.69230000     -1.87848900     -1.12963800
O           5.96259700     -0.52216600     -2.70299100
H           3.76452100      0.14276300      0.82356700
H           3.90832900      1.88745800      0.54746900
H           5.34013100      0.94328600      1.01984500
H           6.39540100     -0.63898000     -0.66372500
H           3.82396500      0.68024000     -1.67471600
H           5.36722300      1.51265500     -1.45697000
H           4.33008900     -1.96478100     -0.09190000
H           3.82138100     -1.89297500     -1.80525900
H           5.30434800     -2.77494600     -1.33604600
H           6.39991700     -1.35800000     -2.92162500
