17
b3lypvdz=-197.620761974353 
C          -1.03591700     -0.29623600      0.75800900
C          -2.27177100      0.19801900     -0.00281600
C          -3.57870900     -0.48807700      0.41595300
C          -4.80326500      0.02624900     -0.35228000
C          -6.12371800     -0.63168200      0.06662400
H          -0.12546900      0.22142600      0.41348800
H          -0.88267500     -1.37956100      0.60950800
H          -1.13171000     -0.11502200      1.84328700
H          -2.37438100      1.29018900      0.14389400
H          -2.11686400      0.04176400     -1.08748900
H          -3.48466800     -1.58098100      0.26136800
H          -3.73699300     -0.33571800      1.50183200
H          -4.88118400      1.12120100     -0.21081300
H          -4.64496100     -0.13851800     -1.43531500
H          -6.97075900     -0.22294600     -0.50843500
H          -6.10112400     -1.72283300     -0.10292800
H          -6.33153300     -0.46107400      1.13741500
