21
b3lypvdz=-312.087697523447 
C           1.42824700      0.97664700      0.67128400
C          -0.04848700      0.93824800      0.25377100
C           2.13939800      2.22991200      0.17120400
C          -0.87380100     -0.27598000      0.73125800
C          -0.30660000     -1.62206100      0.25432800
C          -1.09316800     -0.28543200      2.25137400
O           2.15160700      2.19058200     -1.25277300
H           1.96657200      0.09943400      0.27191100
H           1.52852800      0.93836500      1.77138300
H          -0.54110600      1.85708900      0.62638800
H          -0.08947700      0.99792300     -0.84727100
H           3.17024500      2.26526500      0.57898900
H           1.60962500      3.13181600      0.54620400
H          -1.86950300     -0.15749700      0.26230300
H           0.64723900     -1.86231700      0.75507700
H          -0.12359000     -1.62663400     -0.83336900
H          -1.00863700     -2.44181400      0.48230500
H          -1.48887000      0.68029300      2.60952500
H          -1.81571900     -1.06592200      2.54201200
H          -0.15793800     -0.48960200      2.80113900
H           2.58793400      2.99338800     -1.57034100
