23
b3lypvdz=-276.187886570237 
C           1.34937300      0.91774700      0.60430900
C          -0.14177200      0.84635700      0.25160600
C           2.09903900     -0.39685800      0.34899000
C           3.54746000     -0.44428000      0.87052800
C           4.45811000      0.72908200      0.47399200
C          -0.85482000      2.19551400      0.37169200
C           4.68655300      0.89085100     -1.03132500
H           1.81317800      1.73037300      0.01533700
H           1.45872000      1.21655300      1.66544600
H          -0.63545600      0.10351600      0.90530200
H          -0.25561300      0.46123700     -0.77957700
H           1.54047000     -1.22746600      0.81918000
H           2.08122400     -0.60642200     -0.73706100
H           3.52857400     -0.50869400      1.97438600
H           4.00996700     -1.38640700      0.52033600
H           4.04309600      1.66893100      0.88219800
H           5.43147800      0.59087200      0.97723100
H          -1.92285200      2.11638300      0.10865100
H          -0.78993100      2.59493800      1.39921600
H          -0.40141700      2.94438700     -0.30028700
H           5.10705500     -0.02860200     -1.47510400
H           3.74988500      1.11941700     -1.56708100
H           5.39237900      1.71137300     -1.24216600
