20
b3lypvdz=-236.902063924355 
C          -0.99662600     -0.29973800      0.76503000
C          -2.29103900      0.17888700      0.06821100
C          -3.55664300     -0.58731500      0.50065600
C          -1.01415600     -0.29024600      2.29738600
C          -3.49187200     -2.10663700      0.31685700
C          -2.50324900      1.69333100      0.22137600
H          -0.16573300      0.33718600      0.41048100
H          -0.75389300     -1.31924600      0.41782200
H          -2.14827700     -0.02078300     -1.01252500
H          -4.40675300     -0.19229400     -0.08422300
H          -3.78790500     -0.35287500      1.55648600
H          -1.23623800      0.71032400      2.70473200
H          -1.76336200     -0.98716500      2.70689200
H          -0.03375200     -0.59903600      2.69682400
H          -2.71609000     -2.57011000      0.94759400
H          -4.45149300     -2.57866400      0.58548900
H          -3.26962700     -2.37487700     -0.73080700
H          -1.62822600      2.26092500     -0.13761700
H          -3.37709100      2.03223400     -0.35991600
H          -2.68007600      1.97829900      1.27295200
