20
b3lypvdz=-236.903035941296 
C           1.34276600      1.01635300      0.70720900
C           2.03490600     -0.28947100      0.28839300
C           3.48066100     -0.38745600      0.81825500
C          -0.21451000     -1.61402400      0.26721300
C           4.41588600      0.75893200      0.41132000
C           1.25189000     -1.54922900      0.71603800
H           0.33617200      1.09865300      0.26729900
H           1.90906500      1.89713500      0.36488200
H           1.24091500      1.08552400      1.80573700
H           2.08630900     -0.29354200     -0.81986900
H           3.45445600     -0.45874300      1.92311500
H           3.91229700     -1.34082500      0.46188700
H          -0.83153900     -0.84456800      0.75817400
H          -0.31053300     -1.47881900     -0.82489300
H          -0.65482100     -2.59278000      0.52264400
H           4.11931700      1.71529300      0.87213100
H           4.42649300      0.90146700     -0.68356200
H           5.45023200      0.55036800      0.73263800
H           1.78442900     -2.43227400      0.31744800
H           1.29610900     -1.64019200      1.81894300
