21
b3lypvdz=-312.087311643624 
C           1.38634300      0.98166200      0.73088800
C          -0.09750900      1.01296600      0.29929300
C           2.09340700     -0.34242800      0.40597300
C           2.12637000      2.16919600      0.10622700
C          -0.96393300     -0.18149100      0.72109200
C          -1.07339000     -0.39537200      2.23268400
O           2.14167600      2.00271700     -1.30913100
H           1.44227400      1.13558800      1.82578400
H          -0.54875800      1.94016800      0.70189200
H          -0.12615900      1.11235500     -0.79938900
H           3.15122100     -0.30588800      0.71789900
H           1.62857100     -1.19086200      0.93068100
H           2.06913600     -0.54709600     -0.67600400
H           3.15763900      2.21943000      0.51184000
H           1.61321600      3.11109700      0.39217100
H          -1.97561700     -0.03067500      0.30422700
H          -0.58179100     -1.10218100      0.24490500
H          -1.44870500      0.51072700      2.74005400
H          -1.76990500     -1.21613100      2.47063600
H          -0.10131000     -0.64889400      2.68717500
H           2.60992200      2.75581300     -1.69469800
