20
b3lypvdz=-236.902590147962 
C           2.07123500     -0.34277900      0.42698200
C          -1.02037500     -0.26894500      0.63223000
C           3.52985000     -0.43567000      0.90107900
C          -0.23000500     -1.52432200      0.24083100
C           3.69586300     -0.43715000      2.42552000
C           1.21344900     -1.56729600      0.77416900
H           1.61693100      0.56377400      0.86791000
H           2.05509600     -0.18739700     -0.66871300
H          -0.60368300      0.63819700      0.16451500
H          -2.07301200     -0.34512900      0.31264300
H          -1.01170800     -0.10858800      1.72540000
H           4.09547700      0.41414200      0.47855100
H           3.99715800     -1.34471100      0.47626600
H          -0.21891900     -1.61482700     -0.86225800
H          -0.76359300     -2.41852500      0.61085700
H           3.25432700     -1.33264100      2.89360800
H           4.75975400     -0.40829500      2.71346000
H           3.20376500      0.44073800      2.88117200
H           1.70980500     -2.47182800      0.37321400
H           1.18668400     -1.69774800      1.87246400
