20
b3lypvdz=-236.903703415206 
C           2.18109500     -0.44813900      0.38392100
C          -0.95991400     -0.15299700      0.74359800
C          -2.34570500     -0.00745600      0.09585500
C          -0.22992100     -1.39249300      0.19005100
C          -1.07906500     -0.18574100      2.27393500
C           1.22157800     -1.61269800      0.65729800
H           1.94228000      0.44000100      0.99252600
H           3.22067200     -0.73378000      0.61842000
H           2.15116600     -0.13803700     -0.67613400
H          -0.36816700      0.74090400      0.46592100
H          -2.97784200     -0.88870500      0.30931200
H          -2.87715600      0.87815200      0.48340800
H          -2.27247700      0.09227000     -1.00060900
H          -0.24187700     -1.33728500     -0.91536900
H          -0.82181700     -2.29036000      0.45586000
H          -1.57143300      0.72376300      2.65836200
H          -1.68669200     -1.04832800      2.60328300
H          -0.09629800     -0.26447600      2.76619800
H           1.60538100     -2.51500800      0.14853700
H           1.24119300     -1.85078800      1.73662600
