23
b3lypvdz=-276.189836748426 
C           1.24302200      0.78863700      0.72602000
C          -0.22330000      0.75223500      0.27868400
C           2.10712600     -0.42058600      0.31320800
C           3.51829400     -0.29774100      0.90615500
C          -0.95092200      2.08668500      0.48062500
C           1.48318100     -1.77499400      0.68222900
C          -2.44741800      2.01289300      0.16909600
H           1.71646500      1.69923900      0.31213500
H           1.28127000      0.90803800      1.82708600
H          -0.76456500     -0.04052600      0.82667600
H          -0.28238400      0.47121300     -0.79148400
H           2.20107600     -0.39226700     -0.79009800
H           3.97825700      0.67383100      0.65664200
H           3.49401500     -0.38272800      2.00798200
H           4.18535200     -1.09031500      0.52820400
H          -0.80465300      2.43088800      1.52193900
H          -0.47640200      2.85553800     -0.15744600
H           0.53781000     -1.95481200      0.14623100
H           2.16874900     -2.60005900      0.42428700
H           1.27302400     -1.84337900      1.76503600
H          -2.96051900      1.29527500      0.83152200
H          -2.62548500      1.67942900     -0.86885300
H          -2.94099100      2.99040800      0.29602200
