20
b3lypvdz=-236.902036199752 
C           1.38671000      0.89330200      0.59114200
C           2.16339700     -0.40312200      0.34728100
C           3.61517600     -0.41361800      0.86922600
C           4.48001700      0.76767700      0.37864000
C           4.25864600     -1.78121400      0.59909400
C           4.66322600      0.89666500     -1.13707900
H           0.32899600      0.78190900      0.30071900
H           1.79728500      1.73764300      0.01332300
H           1.41134900      1.18445000      1.65633900
H           1.63080300     -1.24080200      0.83297500
H           2.15651800     -0.64025100     -0.73377300
H           3.56146400     -0.29743800      1.97062300
H           4.03873600      1.70324300      0.76596000
H           5.47080100      0.68888900      0.86082100
H           4.27978300     -2.01458400     -0.48006900
H           5.29590100     -1.82342100      0.97225300
H           3.69287400     -2.58562000      1.09710900
H           5.17688700      0.02288800     -1.57190700
H           3.69874300      1.00611200     -1.65982900
H           5.27058800      1.78379300     -1.38294900
