17
b3lypvdz=-197.619797592651 
C           2.12122300     -0.38787900      0.35060800
C           3.55893900     -0.39116000      0.89437800
C           4.38449200      0.79945900      0.36626300
C           3.54809400     -0.41009900      2.43044200
C           4.76433800      0.70866400     -1.11874900
H           1.59022200      0.53278400      0.65381500
H           1.54756000     -1.24404300      0.74348100
H           2.09224900     -0.44748100     -0.75029400
H           4.05308700     -1.32091500      0.54950000
H           3.82252000      1.73525200      0.55069000
H           5.31386400      0.88042400      0.95842600
H           2.97490500     -1.26874000      2.81849200
H           4.57082900     -0.47770300      2.83780900
H           3.08470500      0.50704200      2.83653800
H           5.34122100     -0.21027700     -1.32455400
H           3.87646900      0.70208400     -1.77240400
H           5.39078500      1.56468900     -1.42114100
