23
b3lypvdz=-276.187196994956 
C           1.31559100      0.87170400      0.74546100
C          -0.13479400      0.89136800      0.22222800
C           2.10697800     -0.41551800      0.48539900
C          -1.01348300     -0.28505600      0.70386900
C           3.59847200     -0.26346900      0.79818900
C          -1.21748300     -0.42096700      2.21639500
C          -0.77004200      2.26066800      0.50714700
H           1.84993000      1.71351500      0.26586100
H           1.32942400      1.09637400      1.82994500
H          -0.07863300      0.78460300     -0.87884300
H           1.68689600     -1.24380900      1.08370000
H           1.98412300     -0.71550300     -0.57255900
H          -2.00021600     -0.18461500      0.21578100
H          -0.58708200     -1.22637100      0.31412800
H           4.05641700      0.52634000      0.17883300
H           3.76093800      0.01522300      1.85437800
H           4.15424200     -1.19643900      0.60741700
H          -1.65344500      0.48889800      2.66137800
H          -1.90708700     -1.25183000      2.44045500
H          -0.27222100     -0.62971000      2.74449000
H          -1.79611900      2.32131100      0.10704600
H          -0.81550100      2.47242700      1.58934200
H          -0.18260800      3.06885600      0.04096000
