20
b3lypvdz=-236.901478712952 
C           1.36052300      0.92882000      0.69814500
C           2.13144000     -0.35374700      0.35375900
C           3.59184700     -0.38770400      0.85351000
C           4.39022100      0.85955800      0.43795700
C           4.29901700     -1.70203900      0.44282200
C           4.66575600     -1.83908400     -1.04239400
H           0.29912400      0.83780900      0.41190700
H           1.76737400      1.80466800      0.16739200
H           1.39929600      1.14435200      1.78098800
H           1.59861200     -1.21962100      0.78796200
H           2.10824600     -0.49822600     -0.74312300
H           3.55228600     -0.39122100      1.96017500
H           4.00642300      1.76340200      0.93712500
H           4.33958500      1.03565400     -0.65042500
H           5.45338400      0.76148500      0.71788900
H           5.22202500     -1.80443800      1.04285900
H           3.65393600     -2.55178300      0.73614000
H           5.39923800     -1.07891900     -1.35678600
H           3.78370500     -1.74667600     -1.69801900
H           5.11896000     -2.82599000     -1.23698400
