23
b3lypvdz=-276.184896579915 
C           2.06861300     -0.42061800      0.40309400
C           3.52586800     -0.41598200      0.94558900
C           4.29085800      0.80374100      0.35942600
C           3.53110500     -0.35653300      2.48464100
C           1.25589700     -1.70446000      0.60903700
C           3.73076600      2.20245400      0.64112600
C           4.27460400     -1.68689600      0.49847000
H           1.52570600      0.42243000      0.86511700
H           2.10042900     -0.19812600     -0.68031800
H           4.36141000      0.66443900     -0.73545200
H           5.32955500      0.75745500      0.73565800
H           3.08501300     -1.26193700      2.92721400
H           4.56185400     -0.27685800      2.87067200
H           2.96366400      0.50591500      2.87012300
H           0.22576000     -1.56916500      0.24071700
H           1.68704100     -2.55656300      0.05949500
H           1.19122900     -1.99688600      1.67083300
H           2.73241900      2.35138200      0.19707200
H           4.39227100      2.97096500      0.20898500
H           3.64972300      2.41137700      1.72102600
H           4.24351700     -1.80726800     -0.59815300
H           5.33445900     -1.64213400      0.80153000
H           3.84354000     -2.59443300      0.94949900
