21
b3lypvdz=-312.094331907333 
C           1.39026600      0.96812100      0.69202400
C          -0.06273800      0.84392900      0.19738700
C           2.16289300      2.17675500      0.16607100
C          -0.96102600      2.05683900      0.48171400
C           3.61200000      2.19418500      0.65823300
C          -2.44850600      1.75888500      0.25155800
O           2.11026900      2.11344000     -1.26302800
H           1.94048300      0.05483300      0.39911900
H           1.40106400      1.00668500      1.79662600
H          -0.50791700     -0.04847800      0.67485500
H          -0.05733800      0.64712800     -0.88851100
H           1.66047800      3.10340400      0.51657600
H          -0.81743100      2.39379600      1.52635100
H          -0.65487200      2.89775300     -0.16504500
H           4.14689000      1.29642700      0.30531600
H           4.14919300      3.07567700      0.26560800
H           3.66685900      2.22795600      1.75968800
H          -2.80231400      0.95748500      0.92239800
H          -2.63338800      1.42861900     -0.78593800
H          -3.07220700      2.64967200      0.43785000
H           2.58054000      2.88668900     -1.60645000
