17
b3lypvdz=-197.619915740624 
C           0.02685400      0.84168400      0.22439900
C          -1.06172400     -0.11595500      0.72479200
C          -2.42380700      0.23403800      0.09498200
C          -3.56244300     -0.73001600      0.43205000
C          -1.10404700     -0.13356800      2.25759000
H           1.02031100      0.55732400      0.60958700
H          -0.17305300      1.87602200      0.55815100
H           0.08091700      0.85160300     -0.87711700
H          -0.79389300     -1.13557500      0.38248000
H          -2.70644700      1.26087000      0.39809300
H          -2.29729500      0.26625200     -1.00267800
H          -4.47266000     -0.47617800     -0.13516900
H          -3.29382100     -1.77124600      0.17991600
H          -3.82547000     -0.70510900      1.50235500
H          -1.39429500      0.85520900      2.65808300
H          -1.82103500     -0.87149500      2.64899300
H          -0.11549100     -0.38446000      2.67729400
