14
b3lypvdz=-158.333856618879 
C           1.27455200     -1.62323600      0.65047700
C          -0.92426700     -0.27405300      0.77409900
C          -1.15378500     -0.25559900      2.28959400
C          -0.20465500     -1.52843900      0.25274100
H           1.83210100     -0.72908000      0.31705200
H           1.76016600     -2.49877500      0.18898800
H           1.40935000     -1.70680000      1.74252400
H          -0.34726000      0.62156800      0.47142400
H          -1.90065200     -0.18585900      0.26459400
H          -1.72700000      0.63403300      2.59970900
H          -1.72901400     -1.14144900      2.61465100
H          -0.20706500     -0.25318500      2.85484200
H          -0.28159000     -1.54965600     -0.84981800
H          -0.74558200     -2.42607100      0.61002300
