14
b3lypvdz=-158.333829251061 
C          -3.62566400     -0.53424200      0.44873400
C          -4.85774200     -0.08664900     -0.34696000
C          -2.30948500      1.68569000      0.27379700
C          -2.31149600      0.16631900      0.06574400
H          -3.49255500     -1.62361600      0.31299800
H          -3.81589600     -0.37899300      1.52866200
H          -5.73840100     -0.69046200     -0.07181500
H          -5.11031200      0.96956000     -0.15372600
H          -4.69835600     -0.20449600     -1.43405900
H          -1.31432700      2.11006000      0.05878900
H          -3.02941400      2.19460200     -0.38705600
H          -2.56696200      1.94732600      1.31572200
H          -1.49425900     -0.27670500      0.66320900
H          -2.07483200     -0.05849200     -0.99143700
