18
b3lypvdz=-272.805798171249 
C          -0.01494300      0.98400400      0.26419900
C          -0.93041400     -0.18047000      0.68223300
C          -2.33414000      0.01330900      0.07840800
C          -0.33506400     -1.51005000      0.18785800
C          -1.02814000     -0.24503400      2.21643700
O          -0.25690300     -1.48453600     -1.23318200
H           0.97314400      0.90868800      0.74880200
H          -0.45659100      1.95177900      0.55587000
H           0.13951800      0.98437900     -0.82522800
H          -3.01369500     -0.80241000      0.37848700
H          -2.77660000      0.96203000      0.42537300
H          -2.28931600      0.02439200     -1.02115900
H           0.66916300     -1.64892100      0.64012500
H          -0.97284900     -2.34748100      0.53984900
H          -1.39793500      0.71007200      2.62534800
H          -1.72555500     -1.03374600      2.54464200
H          -0.04644200     -0.45022000      2.67769900
H           0.14976200     -2.31218500     -1.52446100
