23
b3lypvdz=-276.184472540245 
C           2.12747500     -0.46065000      0.35510600
C           3.57397400     -0.42447500      0.88795600
C           4.37257400      0.82361700      0.36766100
C           3.53752300     -0.39799800      2.43130500
C           3.67798000      2.16954400      0.64971100
C           4.28359800     -1.72941300      0.46755500
C           4.75689300      0.75757700     -1.12275400
H           1.53371100      0.39640000      0.71215800
H           1.61498200     -1.37490500      0.70058300
H           2.09407000     -0.46143700     -0.74811700
H           5.32149800      0.82769300      0.93788200
H           3.02769600     -1.29404800      2.82385000
H           4.55694400     -0.38176500      2.85432500
H           2.99635000      0.47729600      2.82460200
H           2.77378900      2.29965700      0.03171100
H           4.35919800      3.00344400      0.40828300
H           3.38457400      2.28269700      1.70594000
H           4.22912100     -1.89932500     -0.62006100
H           5.34878000     -1.71965800      0.75850000
H           3.81289300     -2.59838600      0.95770900
H           5.42025100     -0.09140700     -1.34733200
H           3.86856600      0.67825600     -1.77324300
H           5.29656200      1.67398600     -1.41733300
