20
b3lypvdz=-236.901378694778 
C           2.11278700     -0.40282600      0.30884400
C           3.56402000     -0.43571600      0.83528000
C           4.36503800      0.79332400      0.34069200
C           1.24527100     -1.60145900      0.71658600
C           4.27774100     -1.76396000      0.53018200
C           4.77650900      0.78558400     -1.13936100
H           1.63574200      0.52457000      0.67588900
H           2.11950200     -0.32733100     -0.79505800
H           3.50892200     -0.34449500      1.93753200
H           3.76660100      1.70140300      0.54466700
H           5.27731800      0.89064400      0.95771200
H           0.19882900     -1.45278100      0.40119800
H           1.59699900     -2.53679600      0.25160900
H           1.24838900     -1.74883300      1.81130900
H           4.23197800     -2.01868300     -0.54287100
H           5.34075900     -1.71849500      0.82373300
H           3.82393500     -2.59855700      1.08800600
H           5.48046400     -0.03149300     -1.36715700
H           3.90805800      0.67807100     -1.81070900
H           5.28143700      1.73042800     -1.40318500
