23
b3lypvdz=-276.184915532505 
C           1.33968500      0.93347400      0.70840500
C          -0.12154000      0.93738900      0.20118300
C           2.07847300     -0.37819100      0.32047400
C           2.10507900      2.18268800      0.24016800
C           3.51347200     -0.43214000      0.87426000
C          -0.89435600      2.24492100      0.41860300
C           1.31596400     -1.64692500      0.74391700
H           1.30299500      0.96880000      1.81768600
H          -0.67113000      0.12346100      0.70137400
H          -0.12993500      0.69077200     -0.87895200
H           2.14853300     -0.39048000     -0.78612100
H           3.12608300      2.21322600      0.64861600
H           2.17896200      2.21870500     -0.86212600
H           1.60552400      3.10535400      0.57122900
H           4.16032300      0.34918300      0.44749900
H           3.52652700     -0.31550200      1.97360000
H           3.98110700     -1.40308200      0.63808100
H          -1.95749000      2.11584000      0.15513200
H          -0.84841300      2.57284400      1.47239900
H          -0.50367300      3.06726200     -0.20123600
H           0.35978000     -1.76058500      0.21136300
H           1.91876300     -2.54495000      0.52657600
H           1.09916600     -1.64736200      1.82776800
