20
b3lypvdz=-236.901994293623 
C           2.10790000     -0.50785500      0.29574100
C           3.50029900     -0.34939100      0.92102500
C           4.35828500      0.83075700      0.40889300
C           5.50205500     -0.57251600     -1.45245300
C           3.70317600      2.19494200      0.67613400
C           4.77496900      0.72271100     -1.07349700
H           1.46966500      0.37277400      0.48175100
H           1.58795600     -1.37957600      0.72606400
H           2.15380500     -0.65854500     -0.79651900
H           3.38928900     -0.23752100      2.01535200
H           4.06815200     -1.28624000      0.78020000
H           5.29408800      0.79727900      1.00086300
H           4.83065000     -1.44616000     -1.43294100
H           5.92660700     -0.50773700     -2.46781700
H           6.33555200     -0.78067500     -0.75962500
H           2.81121200      2.35006600      0.04643100
H           4.40727500      3.01472100      0.45328500
H           3.38767000      2.29764300      1.72853700
H           3.88901600      0.85861200     -1.72158900
H           5.43468000      1.58090800     -1.29853400
