18
b3lypvdz=-272.809225107402 
C           1.33686500      0.91303700      0.66339300
C          -0.14432500      1.01286200      0.28986000
C           2.16544600      2.08889000      0.14258400
C           4.44027900      0.87632100      0.38847300
C           3.61098400      2.13241500      0.66866700
O           2.13754100      1.99410400     -1.28673200
H           1.76298400     -0.01906200      0.25472000
H           1.45097000      0.86152500      1.76140500
H          -0.71710100      0.15740400      0.68221700
H          -0.59810900      1.93030700      0.70410400
H          -0.26526700      1.04470100     -0.80396700
H           1.66439100      3.02638400      0.47007900
H           4.07404200      0.01051400      0.96339800
H           4.39158700      0.61255800     -0.68027700
H           5.49679200      1.03092400      0.66106500
H           4.10299800      3.00824700      0.20339400
H           3.59058900      2.34747200      1.75292600
H           2.59663400      2.76939600     -1.64190900
