15
b3lypvdz=-233.525194293487 
C           1.37438200      0.95099000      0.67969400
C          -0.09769600      0.95567000      0.25464700
C           2.16272800      2.15743000      0.17074100
C           3.61051200      2.16648200      0.66359700
O           2.11219000      2.10203600     -1.25899800
H           1.87148700      0.03625400      0.30733400
H           1.44886600      0.92886400      1.78218800
H          -0.63476600      0.08628400      0.66731600
H          -0.61448600      1.86316800      0.61457500
H          -0.18610800      0.93397900     -0.84238900
H           1.65515700      3.07951100      0.53371600
H           4.13630100      1.26205800      0.31446900
H           4.15444000      3.04375400      0.27161100
H           3.66542900      2.20473000      1.76497900
H           2.59076400      2.87159100     -1.59958000
