20
b3lypvdz=-236.902587352249 
C           2.06845300     -0.40084600      0.34501800
C           3.52346900     -0.40747600      0.85875500
C           4.32201500      0.82215600      0.37521600
C           1.24899300     -1.64910000      0.70121700
C           3.68485900      2.19142100      0.65024700
C           4.27095200     -1.69480200      0.47405100
H           1.55096600      0.48320100      0.75549800
H           2.07185900     -0.27284100     -0.75537700
H           3.48643500     -0.36289900      1.96642000
H           4.50689200      0.72312800     -0.71208800
H           5.31607200      0.79208000      0.85678200
H           0.19287300     -1.51717600      0.41176900
H           1.62019800     -2.54650100      0.18110800
H           1.27720500     -1.85323400      1.78624900
H           2.77256700      2.35076700      0.05327600
H           4.38714800      3.00250600      0.39343000
H           3.41578200      2.30505100      1.71549000
H           4.25774600     -1.84826600     -0.62007900
H           5.32557500     -1.64769400      0.79478400
H           3.82783900     -2.58547500      0.94593400
