20
b3lypvdz=-236.903588310084 
C          -0.88795100     -0.05530900      0.63799900
C          -2.24208500      0.32890900      0.01387400
C          -0.37609200     -1.46295800      0.30061900
C          -3.37902800     -0.68478200      0.21080300
C          -4.74975300     -0.13164900     -0.19430200
C           1.04247600     -1.72000400      0.82132900
H          -0.13379500      0.68717000      0.31674900
H          -0.95208500      0.04047500      1.73960900
H          -2.55537500      1.29921900      0.44138100
H          -2.10958900      0.50569900     -1.07094000
H          -0.39792500     -1.61650100     -0.79517100
H          -1.06114200     -2.21694000      0.72770800
H          -3.16687100     -1.59699600     -0.37480200
H          -3.41686200     -1.00388200      1.26954700
H          -5.54014600     -0.89261800     -0.08267300
H          -5.02888400      0.73443800      0.42960700
H          -4.75423200      0.20759100     -1.24534300
H           1.77024300     -1.03455200      0.35524000
H           1.37170900     -2.75009500      0.60546100
H           1.10158700     -1.57041400      1.91430400
