17
b3lypvdz=-197.618988684247 
C           2.07247100     -0.40761400      0.38424400
C           3.50949000     -0.45888600      0.92355500
C          -0.22081200     -1.52701500      0.22403600
C           3.60260900     -0.34519900      2.44853000
C           1.24103900     -1.66753600      0.65716600
H           1.55808000      0.46884600      0.82442700
H           2.09277900     -0.22712900     -0.70689800
H           4.09499800      0.35877300      0.46701200
H           3.99593900     -1.39442600      0.58700100
H          -0.71268800     -0.69594900      0.75794000
H          -0.30433400     -1.31478700     -0.85681600
H          -0.80116700     -2.44137000      0.43177800
H           3.11146900     -1.18693100      2.96391500
H           4.65015400     -0.31757500      2.78995100
H           3.11362600      0.57910500      2.80496400
H           1.70705100     -2.52384200      0.13375400
H           1.27999600     -1.91656400      1.73364000
