21
b3lypvdz=-312.088064579146 
C           1.37100000      0.98534100      0.69001700
C          -0.08135100      1.03268700      0.16704500
C           2.09130200     -0.34200700      0.41250300
C           2.16920000      2.17289300      0.14172200
C          -0.95177400     -0.18142900      0.51059100
C          -2.43326700      0.03808900      0.19437900
O           2.34952000      1.99147200     -1.26014300
H           1.34002700      1.12622800      1.78878100
H          -0.55803100      1.94129400      0.58160400
H          -0.05635200      1.17629700     -0.92846400
H           3.12231800     -0.31224800      0.80327200
H           1.58067500     -1.18607300      0.90000100
H           2.14818400     -0.54323800     -0.66863800
H           3.14559800      2.23420900      0.66435600
H           1.62073000      3.11358300      0.35868000
H          -0.58593600     -1.06407000     -0.04250500
H          -0.83900500     -0.43087300      1.58282600
H          -3.03864600     -0.85116800      0.43702800
H          -2.84448400      0.88344100      0.77216200
H          -2.58666500      0.26647900     -0.87479300
H           2.85425800      2.74369100     -1.59852500
