21
b3lypvdz=-312.086945788081 
C           1.36373300      1.00465800      0.64667900
C          -0.08770500      0.94554100      0.12123700
C           2.13716600      2.28107500      0.29595600
C          -0.84242500     -0.28429200      0.66373900
C          -0.29928700     -1.64447500      0.24098100
C          -0.87986400      2.22132300      0.44184400
O          -0.38765300     -1.72601600     -1.17823100
H           1.91860300      0.13627500      0.24995000
H           1.35460700      0.88224900      1.74808100
H          -0.04645200      0.83623400     -0.97793500
H           3.19065800      2.20346100      0.61142500
H           2.12529300      2.47781100     -0.79042200
H           1.71391300      3.16685200      0.79561000
H          -1.89191700     -0.23192700      0.32239800
H          -0.86601400     -0.24659400      1.76977600
H           0.74616200     -1.77354400      0.58999400
H          -0.90073600     -2.43839200      0.72892400
H          -1.91911800      2.13828400      0.08306300
H          -0.91476600      2.41086900      1.52995700
H          -0.44028700      3.10932500     -0.03725100
H          -0.00171100     -2.56941900     -1.45367500
