21
b3lypvdz=-274.997490213475 
C           3.58081100     -0.41471000      0.80426300
C           4.38828200      0.82639100      0.38076700
C           5.52163800     -0.58326900     -1.41623000
C           3.64204500      2.12964600      0.68155000
C           4.32018500     -1.72800900      0.50228200
C           4.77662700      0.72290700     -1.10478000
C           4.72358900     -1.81966500     -0.97706200
H           2.61181300     -0.40874000      0.26868500
H           3.34205000     -0.35569600      1.88134900
H           5.32731400      0.82824100      0.96946400
H           5.75802000     -0.64199100     -2.49246100
H           6.49182900     -0.57426900     -0.88381800
H           2.70088400      2.19103400      0.10847400
H           4.25368000      3.00777900      0.41186700
H           3.38561500      2.21249300      1.75130500
H           5.22828300     -1.79023300      1.13165300
H           3.68972900     -2.58867900      0.78551500
H           3.85518200      0.78121300     -1.71747700
H           5.39361200      1.59151500     -1.39584300
H           3.81176400     -1.90594000     -1.59857300
H           5.31174900     -2.73541900     -1.16153000
