21
b3lypvdz=-312.09087930769 
C          -0.92091200     -0.19084600      0.64860500
C          -2.29800000      0.09536300      0.02189600
C          -0.23487500     -1.50212700      0.24239300
C          -3.52956600     -0.63435100      0.58522200
C          -3.62013100     -2.13767600      0.30309700
C           1.19518200     -1.58432800      0.77745100
O          -0.23611600     -1.54368000     -1.18785300
H          -0.23950700      0.62857100      0.35467300
H          -0.98571500     -0.15916100      1.75240300
H          -2.48259600      1.17843100      0.14226700
H          -2.22414600     -0.09237800     -1.06344700
H          -0.81303400     -2.35791800      0.64390300
H          -4.41941000     -0.14781000      0.14576600
H          -3.60192800     -0.45521100      1.67532900
H          -2.87467700     -2.71709100      0.86913700
H          -4.61126200     -2.53354700      0.58209400
H          -3.45754300     -2.35430400     -0.76681400
H           1.80327100     -0.76828700      0.35453200
H           1.66723400     -2.54147900      0.49355200
H           1.22447600     -1.51292800      1.87803200
H           0.21065600     -2.35874300     -1.45923800
