18
b3lypvdz=-235.710656120016 
C           3.58507800     -0.42794700      0.82959400
C           4.37274100      0.81456500      0.38122700
C           5.52897800     -0.57461900     -1.40694300
C           4.31700500     -1.73928800      0.49746400
C           4.77844800      0.73145200     -1.09915100
C           4.71762000     -1.81014400     -0.98478800
H           2.59732600     -0.42944800      0.32917000
H           3.38650600     -0.37335300      1.91449700
H           3.77049300      1.72272300      0.56107900
H           5.28357800      0.91602200      1.00274500
H           5.77220200     -0.62886900     -2.48270900
H           6.49382300     -0.57368000     -0.86493400
H           5.22676300     -1.82116100      1.12333600
H           3.67855100     -2.60049000      0.76307000
H           3.87066900      0.78943300     -1.73048100
H           5.40296200      1.60082300     -1.37132000
H           3.80491200     -1.87850700     -1.60765200
H           5.29804300     -2.72961200     -1.17880200
