20
b3lypvdz=-236.903505609723 
C           2.16750500     -0.44195600      0.32988400
C           3.60523400     -0.45336500      0.88550500
C           4.40850000      0.76924200      0.36094900
C           3.54347800     -0.35713200      2.42092000
C           4.28579100     -1.78176600      0.50425900
C           4.73382900      0.80760600     -1.13663400
H           1.64084800      0.48956500      0.60077300
H           1.58433200     -1.28184800      0.74348500
H           2.14679500     -0.53574300     -0.76873600
H           3.84184600      1.68018500      0.63105900
H           5.35509100      0.83010700      0.92808600
H           2.91687800     -1.15893200      2.84507200
H           4.54833700     -0.44570600      2.86809100
H           3.11375700      0.60518400      2.74882700
H           4.25852000     -1.96123400     -0.58296300
H           5.34176000     -1.80043300      0.82500400
H           3.77648400     -2.62960500      0.99257400
H           5.40401700     -0.01436200     -1.43679300
H           3.82845000      0.74357900     -1.76189300
H           5.24514800      1.74981200     -1.39637000
