20
b3lypvdz=-236.902832138196 
C           1.43537400      0.94411000      0.56607500
C           2.07416700     -0.44238700      0.47020000
C           3.53059700     -0.50822400      0.97816500
C           3.58865900     -0.46045700      2.51040800
C           4.26380800     -1.75586500      0.43961700
C           4.71203500     -1.63191000     -1.01942800
H           0.39343900      0.92946200      0.20607000
H           1.98671200      1.67405300     -0.05040300
H           1.42463400      1.32743600      1.59995500
H           1.47215600     -1.17232500      1.04298800
H           2.03131700     -0.78004000     -0.58017300
H           4.06260900      0.38217600      0.58855200
H           3.08007800     -1.33443600      2.95436500
H           4.63004200     -0.46745400      2.87108000
H           3.10261900      0.44021400      2.91844500
H           5.15001500     -1.95702700      1.06732700
H           3.60738900     -2.63827800      0.56324500
H           5.44115300     -0.81238700     -1.14150600
H           3.86768300     -1.42066200     -1.69654600
H           5.19731400     -2.55629800     -1.37423500
