21
b3lypvdz=-312.088827558995 
C           1.45773900      0.94504400      0.58050600
C           0.00059200      0.99203300      0.10067300
C           2.19597000      2.26447600      0.33653300
C          -0.90698800     -0.15025900      0.59861500
C          -2.34244200      0.02888600      0.08352300
C          -0.37495800     -1.54251000      0.24535600
O          -0.26332300     -1.64375500     -1.17094900
H           1.99232000      0.12577200      0.06838500
H           1.49080700      0.70594700      1.66069800
H          -0.44939900      1.94577200      0.43406700
H          -0.01699600      1.00951700     -1.00350600
H           3.24324600      2.21509200      0.67766200
H           2.20145000      2.52968100     -0.73494800
H           1.70979500      3.09443600      0.87751900
H          -0.92388300     -0.10577200      1.70539900
H          -3.03185200     -0.68645100      0.56132500
H          -2.71538300      1.04552500      0.29131500
H          -2.38484700     -0.14122300     -1.00472000
H           0.60404800     -1.70814700      0.73710000
H          -1.07315100     -2.30624900      0.64660400
H           0.11045500     -2.51101400     -1.37895700
