20
b3lypvdz=-236.902753194389 
C           2.08756400     -0.42407200      0.30814200
C           3.52053100     -0.45173900      0.87036800
C          -0.24657500     -1.46550400      0.27236600
C           1.23387400     -1.66296700      0.61365300
C           4.38196400     -1.67676000      0.52145500
C           4.70836000     -1.83477500     -0.96599500
H           1.57981100      0.46470900      0.72771600
H           2.10595100     -0.26427100     -0.78669800
H           4.04680900      0.45826400      0.52391900
H           3.46801800     -0.36777700      1.97191400
H          -0.68481900     -0.64199000      0.86184300
H          -0.38461300     -1.21351800     -0.79412200
H          -0.83984400     -2.37148300      0.48112900
H           1.62760200     -2.53149300      0.05509400
H           1.33095200     -1.92588500      1.68438500
H           5.32479500     -1.60337000      1.09170900
H           3.88534500     -2.59358300      0.88973300
H           5.20902800     -0.93377100     -1.36322000
H           3.80300000     -2.00340700     -1.57289600
H           5.38444600     -2.68850800     -1.13989500
