23
b3lypvdz=-276.186766075427 
C           1.34513600      0.92975300      0.76189900
C          -0.08733700      0.94841100      0.18764400
C           2.07988400     -0.38896000      0.43749000
C           2.10862500      2.17305300      0.28088200
C          -0.99133800     -0.21376000      0.60923100
C           3.54185800     -0.49810000      0.90305200
C           3.73817000     -0.37221200      2.41658500
H           1.25240000      1.00336500      1.86359500
H          -0.56073600      1.89872800      0.49542600
H          -0.02922400      0.98502600     -0.91769100
H           1.51694600     -1.22509800      0.88878100
H           2.04277100     -0.55468000     -0.65695900
H           3.08110800      2.28756800      0.78411900
H           2.29774400      2.13192500     -0.80704900
H           1.52528800      3.08812500      0.48105500
H          -2.02280000     -0.05622900      0.25370100
H          -0.64844200     -1.17640300      0.19701000
H          -1.02799600     -0.31858200      1.70784800
H           4.16353900      0.25626800      0.38861800
H           3.93367300     -1.47539300      0.56854600
H           3.10015200     -1.08545500      2.96648800
H           4.78379200     -0.57407300      2.70218300
H           3.48728900      0.63762200      2.78264700
