20
b3lypvdz=-236.903029898237 
C           1.34521100      1.02598600      0.60973000
C          -0.13918600      0.91945400      0.24600200
C           2.10427700     -0.28567800      0.35987100
C           3.55300300     -0.35852600      0.89432100
C           4.42466000      0.82067000      0.43780300
C           3.59724900     -0.51127900      2.42137600
H           1.80984500      1.83947500      0.02439600
H           1.43726800      1.32569300      1.66999600
H          -0.64405200      0.15211500      0.85718500
H          -0.67016800      1.87234400      0.40796300
H          -0.27553100      0.63407500     -0.81247800
H           1.53185500     -1.11823300      0.81055600
H           2.11016200     -0.48296400     -0.72931400
H           3.99286800     -1.27786000      0.46290500
H           4.08785300      1.76830500      0.89316600
H           4.40076700      0.95096000     -0.65758000
H           5.47636300      0.67233100      0.73608900
H           2.97846800     -1.35887800      2.76045200
H           4.62718900     -0.68794500      2.77393500
H           3.22580000      0.39305500      2.93452500
