21
b3lypvdz=-312.092463331459 
C           1.38917600      0.89335300      0.61699500
C           2.15668200      2.15229300      0.22255200
C           4.47782600      0.93233300      0.36433000
C           5.46598500     -0.65067600     -1.36864100
C           3.63022700      2.17352800      0.67808000
C           4.78593700      0.69657900     -1.12028900
O           2.02378600      2.25840400     -1.20034400
H           0.32785100      0.99735700      0.34375500
H           1.78826300      0.01443800      0.08730000
H           1.45742700      0.70629200      1.70102000
H           1.65873200      3.02066100      0.70403500
H           3.97041100      0.03958900      0.77420000
H           5.42836500      1.00624100      0.92289400
H           4.80636200     -1.48404000     -1.06951500
H           5.71799700     -0.79343100     -2.43212400
H           6.39841500     -0.74907800     -0.78726200
H           4.10449600      3.07145100      0.23362300
H           3.63930300      2.35069000      1.76946800
H           3.85188800      0.76569700     -1.69845500
H           5.43039300      1.51697100     -1.49020900
H           2.51177700      3.04734900     -1.48061300
