20
b3lypvdz=-236.902677688381 
C           1.32958600      0.91527000      0.72033600
C          -0.13256300      0.93134000      0.23438100
C           2.12250900     -0.34475400      0.34005500
C          -0.99843400     -0.22988500      0.73858200
C           3.57745500     -0.37150300      0.84634000
C           4.45153800      0.79714600      0.37420600
H           1.83443400      1.80432800      0.30376000
H           1.34699700      1.03739400      1.82136300
H          -0.59325100      1.88335600      0.55493700
H          -0.14854300      0.94136200     -0.87222500
H           1.60903900     -1.23649800      0.74015100
H           2.12025900     -0.45534800     -0.76220500
H          -2.05121900     -0.09051000      0.43990500
H          -0.66883300     -1.19760000      0.32615900
H          -0.96856200     -0.30424300      1.84021300
H           3.57733600     -0.40008100      1.95260700
H           4.04162100     -1.31852300      0.51617200
H           4.11246900      1.75846500      0.79371700
H           4.44123400      0.88706800     -0.72650700
H           5.49882700      0.65471700      0.68985100
