17
b3lypvdz=-197.618215646373 
C           2.13620500     -0.42444400      0.31415000
C           3.58095100     -0.42026200      0.83758800
C           4.39560800      0.79591800      0.33961900
C           4.26187100     -1.76786100      0.55490600
C           4.75734300      0.81816900     -1.15187600
H           1.61750900      0.52110300      0.54906700
H           1.55559800     -1.24316300      0.77090000
H           2.09770100     -0.56854600     -0.78053600
H           3.52912700     -0.30983600      1.93820800
H           3.82373200      1.71018400      0.58752800
H           5.32770100      0.85877300      0.93044200
H           4.26116000     -2.00562300     -0.52341800
H           5.30894500     -1.77783300      0.90285400
H           3.73259100     -2.58596600      1.07118100
H           5.42580500     -0.01448300     -1.42712700
H           3.86450300      0.75583600     -1.79604500
H           5.28394800      1.75263400     -1.41004300
