20
b3lypvdz=-236.906007529244 
C           1.32820800      0.89622900      0.67781000
C          -0.12222000      0.89241900      0.17763700
C           2.09826300     -0.38775500      0.34140500
C           3.53718800     -0.39905000      0.87326000
C          -0.87108100      2.18846500      0.50952700
C           4.30460000     -1.67107700      0.49467200
H           1.85914000      1.76447500      0.24311400
H           1.33454400      1.04881600      1.77457500
H          -0.65941600      0.03289400      0.61932600
H          -0.13128800      0.73237900     -0.91733200
H           1.55364900     -1.25897500      0.75336100
H           2.11420800     -0.52567400     -0.75706400
H           4.07814400      0.48522800      0.48757700
H           3.51905500     -0.29412600      1.97452100
H          -1.90324400      2.16797900      0.12229900
H          -0.92284900      2.34809200      1.60087900
H          -0.36551000      3.06419700      0.06768400
H           4.39167100     -1.77058200     -0.60140500
H           5.32380600     -1.66642400      0.91478300
H           3.79163200     -2.57251100      0.87237200
