18
b3lypvdz=-272.804251724629 
C           1.37453700      1.00573900      0.66686400
C           1.98461400     -0.34269900      0.26735500
C           2.23460000      2.20172500      0.25190800
C          -0.23409400     -1.66651900      0.24640700
C           1.20823300     -1.57684900      0.75158700
O          -0.33469100     -1.60512400     -1.17260200
H           0.37461700      1.10671500      0.20929300
H           1.22055200      1.03048600      1.76271100
H           3.01450900     -0.40327100      0.66512500
H           2.06886600     -0.38255800     -0.83289400
H           3.24024100      2.15228700      0.70418700
H           2.36574900      2.24074000     -0.84347600
H           1.77849800      3.15431500      0.56774700
H          -0.82632700     -0.81049900      0.61133400
H          -0.71832500     -2.57738000      0.65476900
H           1.74801500     -2.48807700      0.42545100
H           1.19787500     -1.61724500      1.85754600
H           0.17213200     -2.34988700     -1.53051200
