12
b3lypvdz=-194.234143221762 
C           5.57552300     -0.57783400     -1.41323700
O           5.92253200     -0.58677900     -2.79596800
C           4.30134600     -1.73540700      0.47513100
C           4.71939900     -1.77464100     -0.99990200
H           5.01322200      0.35811400     -1.25191400
H           6.48645100     -0.52312700     -0.78073800
H           6.41649400     -1.40315100     -2.96125300
H           3.71233800     -0.82923000      0.70111200
H           5.18228800     -1.73683800      1.14049100
H           3.68049600     -2.60659000      0.74018400
H           3.82789700     -1.81095100     -1.65071200
H           5.28771400     -2.70476600     -1.20129300
