23
b3lypvdz=-276.186024783558 
C          -0.90022000     -0.17557900      0.85114400
C          -2.17212500      0.24868100      0.06257900
C          -0.27632800     -1.46373300      0.27573600
C          -3.39430400     -0.64852400      0.31233800
C          -1.12704900     -0.28781100      2.36782800
C           1.18785400     -1.69895200      0.66506000
C          -2.53825500      1.72306700      0.28679000
H          -0.16087400      0.63279200      0.67705400
H          -1.89912100      0.14099100     -1.00602800
H          -0.34364900     -1.41518300     -0.82679000
H          -0.88399500     -2.33669200      0.57985000
H          -4.21326900     -0.38501900     -0.37692800
H          -3.16938300     -1.71759800      0.16451400
H          -3.78123500     -0.52571400      1.33887600
H          -1.51456600      0.64781700      2.80366700
H          -1.85248000     -1.08416500      2.60666800
H          -0.19213100     -0.53191200      2.89724300
H           1.81906400     -0.84072400      0.37201500
H           1.59557000     -2.58867800      0.15837600
H           1.32064200     -1.84786500      1.74971300
H          -1.69587000      2.39422900      0.04771600
H          -3.38724900      2.01818700     -0.35215000
H          -2.83662700      1.91988600      1.33123000
