23
b3lypvdz=-276.184849734222 
C           1.38313400      0.93808500      0.69365800
C           2.11402200     -0.34958200      0.27440400
C           3.56302400     -0.40001100      0.83326400
C           4.37158700      0.86181600      0.48392800
C           1.28850600     -1.57990200      0.68508500
C           4.33696300     -1.68384400      0.45179900
C           4.61185100     -1.88568100     -1.04394600
H           0.33859400      0.92509000      0.34053600
H           1.85614200      1.83902200      0.27460000
H           1.36364500      1.04971800      1.79318300
H           2.17699800     -0.34322400     -0.83124500
H           3.47141200     -0.42307600      1.93852000
H           3.97608400      1.75257500      0.99412600
H           4.35995900      1.06914900     -0.60038500
H           5.42468200      0.75168600      0.79346800
H           0.24123800     -1.47631800      0.35519800
H           1.67709200     -2.50963100      0.24144100
H           1.28080100     -1.71061500      1.78249300
H           5.29899900     -1.67006700      0.99465600
H           3.79530500     -2.56288700      0.84048400
H           5.24578800     -1.08560000     -1.46066400
H           3.68113200     -1.91314100     -1.63511000
H           5.13844300     -2.83946100     -1.21679100
