18
b3lypvdz=-272.804080496848 
C           1.29474500      0.97907100      0.66920800
C          -0.16249400      0.94795700      0.16572000
C           2.12501500      2.15763200      0.18024700
C          -0.88288200     -0.28824800      0.72578300
C          -0.92852400      2.23804800      0.49579200
O           2.12722600      2.14321400     -1.24809000
H           1.79693300      0.04670200      0.35272800
H           1.30352800      0.98613800      1.77643600
H          -0.12999500      0.85305600     -0.93381400
H           3.15780100      2.06966600      0.57564400
H           1.70364200      3.10889200      0.56495000
H          -1.90773900     -0.36706700      0.32566700
H          -0.34741500     -1.21589000      0.45894900
H          -0.95397600     -0.24697700      1.82825800
H          -1.98069800      2.16499300      0.17190400
H          -0.92419800      2.44196700      1.58265300
H          -0.49210000      3.11012900     -0.01728100
H           2.64353200      2.90451700     -1.54635300
