21
b3lypvdz=-312.093286353981 
C           2.14457600     -0.53155400      0.42980400
C          -0.95288700     -0.02257500      0.55868700
C          -2.38203000      0.18424800      0.02954800
C          -0.30390600     -1.34633000      0.14402100
C          -3.43526000     -0.77166400      0.59552800
C           1.08772300     -1.59009800      0.75605600
O          -0.24149600     -1.32960600     -1.28700600
H           1.93200100      0.42906700      0.92589900
H           3.14218900     -0.86114000      0.76218900
H           2.18398500     -0.34558600     -0.65517600
H          -0.31616300      0.80238500      0.19780800
H          -0.95165300      0.03386300      1.66401500
H          -2.68512000      1.22185500      0.25739800
H          -2.35728700      0.09222700     -1.06993700
H          -0.95509400     -2.17826100      0.48497400
H          -4.43392500     -0.53239900      0.19402200
H          -3.22738600     -1.82318500      0.33418100
H          -3.49453000     -0.70497200      1.69682800
H           1.43788000     -2.57425700      0.38801400
H           0.98057200     -1.70559500      1.84995300
H           0.14661200     -2.16872400     -1.57580600
