23
b3lypvdz=-276.186969781273 
C           2.10706300     -0.41815900      0.39873000
C          -0.99617100     -0.24414100      0.68619200
C           3.55998600     -0.48286800      0.92521100
C          -0.23976700     -1.50167100      0.23859900
C           3.62785200     -0.39340700      2.45851600
C           1.20682900     -1.61012900      0.75860200
C           4.32638000     -1.71536700      0.41660100
H           1.65311200      0.51166000      0.78411100
H           2.13448100     -0.31019800     -0.70291000
H          -0.57379200      0.66963800      0.23789000
H          -2.05516500     -0.29549900      0.38213000
H          -0.96615000     -0.12615500      1.78426200
H           4.07405300      0.41054200      0.52298100
H          -0.23640200     -1.54766200     -0.86739800
H          -0.79586100     -2.39412600      0.57879500
H           3.20604600     -1.29195700      2.93958700
H           4.67229000     -0.29832600      2.80030100
H           3.07091900      0.48029600      2.83864000
H           1.64717800     -2.53696800      0.35178400
H           1.17772400     -1.73739500      1.85717400
H           4.27008500     -1.80153900     -0.68269100
H           5.39294500     -1.65716100      0.69342400
H           3.92666800     -2.64770700      0.84976700
