20
b3lypvdz=-236.902399777621 
C           1.32302000      0.95697800      0.70949700
C          -0.13134400      0.92983700      0.20369100
C           2.17056800      2.11833700      0.17242000
C           4.42494700      0.84944000      0.37312600
C          -0.94461400      2.19670600      0.49698500
C           3.63375400      2.13265500      0.65505100
H           1.79481900     -0.00117200      0.43030000
H           1.32107300      0.99123500      1.81678300
H          -0.64059100      0.06408500      0.66379100
H          -0.13411400      0.74208000     -0.88696100
H           2.15468800      2.09542300     -0.93524800
H           1.70820900      3.07621100      0.46828000
H           4.04942500     -0.00188200      0.96322800
H           4.37053300      0.56986800     -0.69431700
H           5.48911900      0.98216300      0.63189400
H          -2.00051300      2.05952000      0.20899800
H          -0.91891200      2.45017700      1.57183400
H          -0.56367500      3.06640900     -0.06236900
H           4.14764800      2.98292500      0.17211100
H           3.65776200      2.34000500      1.74200500
