21
b3lypvdz=-274.997325167281 
C           1.28804300      0.93603000      0.69512800
C          -0.15242600      0.95461600      0.15427100
C           2.03055600     -0.36242100      0.34059600
C          -0.91616900     -0.29278500      0.63398400
C          -0.19872000     -1.59797500      0.25353200
C          -0.87327200      2.25581000      0.51917400
C           1.25365100     -1.62171200      0.75825800
H           1.84609000      1.80352200      0.29940000
H           1.26038200      1.06179000      1.79614200
H          -0.09650300      0.89635300     -0.95209800
H           3.02831500     -0.36517500      0.81216000
H           2.20163200     -0.38716400     -0.75239800
H          -1.94003800     -0.28654300      0.21986200
H          -1.02285900     -0.24374800      1.73608200
H          -0.20753400     -1.70456000     -0.84854000
H          -0.75156100     -2.46517700      0.65463300
H          -1.88878200      2.28443300      0.08971300
H          -0.96669400      2.36651700      1.61439500
H          -0.32565200      3.13590200      0.14144600
H           1.77282300     -2.51923300      0.37871500
H           1.25331900     -1.70588000      1.86214500
