20
b3lypvdz=-236.903217544756 
C           1.46369600      0.93597100      0.61941600
C          -0.02119300      0.92117800      0.22744600
C           2.14682100      2.25632200      0.24679800
C          -0.86337700     -0.27998400      0.71296800
C          -0.27787400     -1.64109100      0.30770500
C          -1.13681400     -0.23673500      2.22436600
H           1.98945500      0.09866400      0.12619400
H           1.57363100      0.76462900      1.70631800
H          -0.49520000      1.84576900      0.60879800
H          -0.09202200      0.98377700     -0.87583600
H           3.21414400      2.25903100      0.52448100
H           2.08099500      2.45134000     -0.83857700
H           1.66902200      3.10802300      0.76107300
H          -1.84231300     -0.17969400      0.20613700
H           0.65607700     -1.85997900      0.85374800
H          -0.05213100     -1.68851100     -0.77134100
H          -0.98747800     -2.45343500      0.53948600
H          -1.55079500      0.73846400      2.53284100
H          -1.86421300     -1.01180200      2.51754100
H          -0.21963200     -0.41293700      2.81313800
