20
b3lypvdz=-236.903459193594 
C          -0.03613800      1.06945300      0.34883600
C          -0.89737000     -0.15303800      0.71706700
C          -2.27541100     -0.01645300      0.04083000
C          -0.24248300     -1.47479200      0.22868900
C          -1.10134600     -0.19543600      2.24528300
C           1.22060500     -1.71226100      0.62301500
H           0.92725900      1.07213300      0.88181300
H          -0.56056000      2.00342300      0.61423100
H           0.17844700      1.10249100     -0.73351200
H          -2.91656100     -0.88808000      0.25476600
H          -2.80407200      0.88204300      0.40216200
H          -2.17747700      0.06711300     -1.05551700
H          -0.32365200     -1.51375500     -0.87384800
H          -0.85783200     -2.31410500      0.60294500
H          -1.53948900      0.74910000      2.61076600
H          -1.79119800     -1.00683600      2.53191700
H          -0.15361400     -0.35222600      2.78568000
H           1.89385700     -0.95852000      0.18351500
H           1.56259400     -2.69632300      0.26253400
H           1.37024000     -1.69263100      1.71562900
