17
b3lypvdz=-197.61979262034 
C           1.32749100      0.95430200      0.70930500
C           2.05866500     -0.33268300      0.29935400
C           3.50655700     -0.38939800      0.82368500
C           4.40044700      0.78051900      0.39443700
C           1.28299700     -1.58106900      0.74404100
H           0.28298100      0.94231700      0.35463600
H           1.80562100      1.84953600      0.28088900
H           1.30911700      1.07296200      1.80805400
H           2.10445700     -0.34762900     -0.80831700
H           3.48785500     -0.44678900      1.92973200
H           3.96350500     -1.33405500      0.47597200
H           4.06224300      1.73500400      0.82954000
H           4.41057700      0.89539200     -0.70368200
H           5.44020000      0.62044900      0.72524600
H           0.26208200     -1.58868100      0.32722800
H           1.78813500     -2.50279200      0.40869000
H           1.19827000     -1.62598500      1.84488800
