21
b3lypvdz=-312.086383917016 
C           1.31672200      0.92927800      0.63608900
C           2.05141100     -0.38995000      0.31796700
C           2.05895200      2.19995800      0.23492700
C           3.49786100     -0.45950900      0.85591400
C           3.66249500     -0.36133400      2.37833800
C           1.21566700     -1.59689600      0.76938900
O           2.43203500      2.09226500     -1.14025600
H           0.34382900      0.90958900      0.11447500
H           1.08884000      0.99643300      1.71650300
H           2.13100900     -0.43965100     -0.78200800
H           2.95408600      2.34148900      0.87283000
H           1.39613800      3.07513700      0.39965600
H           4.09313700      0.33198200      0.36945800
H           3.93939200     -1.41280000      0.51181200
H           3.08427700     -1.13372700      2.90992300
H           4.71972100     -0.49362800      2.66338600
H           3.34094200      0.61974400      2.76795200
H           0.21714000     -1.58660900      0.30180400
H           1.70479700     -2.54427800      0.48490100
H           1.06745400     -1.61012000      1.86328800
H           2.91749500      2.89432800     -1.37774800
