21
b3lypvdz=-312.088025589147 
C           1.41370300      0.95490000      0.71041100
C           2.17993200     -0.33256100      0.36823200
C           2.02884700      2.24275000      0.17160200
C           3.60862900     -0.46694900      0.92936600
C           3.64705200     -0.40424100      2.46169100
C           4.24698800     -1.77164200      0.43281100
O           2.10917100      2.13411300     -1.24578100
H           0.39653100      0.87278000      0.28830400
H           1.28996400      1.06304700      1.80268000
H           1.58527600     -1.19251400      0.73121300
H           2.22231800     -0.42263600     -0.73047900
H           3.03092400      2.41114300      0.61910400
H           1.39320600      3.09975600      0.47719200
H           4.21716500      0.36974400      0.53340200
H           2.98205400     -1.16912400      2.90170200
H           4.66446000     -0.59587800      2.84218900
H           3.32430800      0.57347600      2.85483500
H           4.24120000     -1.83146500     -0.66821300
H           5.29175100     -1.86494100      0.77400000
H           3.69519700     -2.64747900      0.81876400
H           2.54472400      2.92992200     -1.58202600
