21
b3lypvdz=-312.087322904875 
C           1.45018300      0.96747500      0.74665300
C           2.17530100     -0.31035000      0.29861400
C           2.02319700      2.26731300      0.18841000
C           3.60785000     -0.45270800      0.83297700
C           4.27841100     -1.79162200      0.47951500
C           4.75957600     -1.87956400     -0.97270800
O           1.94487200      2.20963900     -1.23062600
H           0.39246000      0.90912000      0.43380000
H           1.45308600      1.03773600      1.85051100
H           1.58447000     -1.17871800      0.64503800
H           2.17013400     -0.34549900     -0.80392100
H           3.06987600      2.40489800      0.53118000
H           1.43859500      3.12018500      0.59125400
H           4.24019600      0.37121500      0.45204800
H           3.58897800     -0.33786300      1.93343900
H           5.13911000     -1.95703800      1.15132400
H           3.56977600     -2.61456900      0.69312800
H           5.52551600     -1.11244400     -1.18107200
H           3.93690700     -1.72125600     -1.68924000
H           5.21281300     -2.86079800     -1.19271600
H           2.37229400      3.00065000     -1.58770900
