21
b3lypvdz=-274.99741973033 
C           1.39886900      0.93716200      0.70138600
C           2.11740500     -0.37683300      0.35507900
C           2.17019400      2.16793800      0.20057200
C           3.57261900     -0.39948600      0.85678800
C           4.33961100      0.83373300      0.34530200
C           3.63010200      2.15674100      0.68111100
C           4.27298100     -1.70972800      0.47598200
H           0.37914000      0.93200500      0.27859600
H           1.28393000      1.00603000      1.80007100
H           1.56394300     -1.23111600      0.78425800
H           2.11182300     -0.52076500     -0.74386000
H           2.14878700      2.18760000     -0.90636500
H           1.66778700      3.09069800      0.54073300
H           3.54917900     -0.34007000      1.96360200
H           4.46215000      0.75215600     -0.75285300
H           5.35759700      0.84065000      0.77415500
H           4.18204600      3.00196500      0.23425600
H           3.65408000      2.31144500      1.77719600
H           4.32012900     -1.82920900     -0.62099400
H           5.30528300     -1.74087500      0.86418600
H           3.73564400     -2.58174000      0.88610000
