23
b3lypvdz=-276.182908769102 
C          -1.04047500     -0.37498900      0.85565400
C          -2.26917300      0.12407900      0.04156000
C          -0.17868700     -1.41864300      0.13708000
C          -3.59812800     -0.53156000      0.50974900
C          -4.82099100     -0.04470000     -0.28514200
C          -3.54904000     -2.06572300      0.47092500
C          -2.33425900      1.65927300      0.09123200
H          -0.39292600      0.48439900      1.09997700
H          -1.37841600     -0.77519100      1.82843000
H          -2.11641800     -0.16726900     -1.01700100
H           0.63022900     -1.78837900      0.79063100
H           0.29713300     -0.98451400     -0.75963300
H          -0.76788400     -2.28971400     -0.19046100
H          -3.74880300     -0.22934400      1.56599700
H          -5.73164400     -0.56765000      0.05140900
H          -5.00290100      1.03412800     -0.16155200
H          -4.70474700     -0.24831900     -1.36539100
H          -2.74623000     -2.47674400      1.10129700
H          -4.49633600     -2.49590800      0.83567800
H          -3.39465700     -2.43080100     -0.55990500
H          -1.38610100      2.09941600     -0.26031400
H          -3.13375300      2.07403100     -0.54067700
H          -2.50289200      2.01372200      1.12395700
