23
b3lypvdz=-276.185074374247 
C           1.33782200      0.94186900      0.73044800
C          -0.11414600      0.90968400      0.17146400
C           2.09538700     -0.36485000      0.39836400
C           2.10977500      2.18652600      0.26307000
C          -0.92989600     -0.27566400      0.71369400
C           3.56070800     -0.42414600      0.84541300
C          -0.87639600      2.22027200      0.42668900
H           1.25875200      1.00387000      1.83616700
H          -0.03451900      0.78266400     -0.92733200
H           1.56223100     -1.20912600      0.86369000
H           2.04324800     -0.53901300     -0.69421500
H           3.12951900      2.20181800      0.67577200
H           2.19084900      2.22162900     -0.83859600
H           1.62193200      3.11531000      0.59226200
H          -1.96746700     -0.23153200      0.34380100
H          -0.51835800     -1.24777800      0.40462000
H          -0.96951700     -0.26273700      1.81811500
H           4.19806900      0.28992400      0.30092100
H           3.66624400     -0.20749600      1.92353300
H           3.97851400     -1.42894600      0.66644700
H          -1.91620800      2.13908800      0.06951400
H          -0.91083000      2.45961500      1.50473300
H          -0.42201200      3.07691900     -0.09207400
