12
b3lypvdz=-194.23384296716 
C           1.37385600      0.96083500      0.68312600
C          -0.09818500      0.94832700      0.26143000
C           2.13230500      2.17703100      0.16528000
O           2.16371100      2.10364800     -1.25660100
H           1.88477900      0.05493600      0.31116100
H           1.45945500      0.94199500      1.78522800
H          -0.62521600      0.06417800      0.65463200
H          -0.62577100      1.84184400      0.64005100
H          -0.18510300      0.95061900     -0.83631200
H           3.15719500      2.18696200      0.58977900
H           1.62679200      3.10396900      0.51282000
H           2.63728100      2.88045400     -1.58499400
