20
b3lypvdz=-236.902864955779 
C           1.32815200      0.94136700      0.67399600
C          -0.14084400      1.01698300      0.23243800
C           2.06317900     -0.36140800      0.29361000
C           3.50920100     -0.39424900      0.83016800
C           4.40405800      0.77462600      0.39864200
C           1.31235300     -1.62473000      0.74317800
H           1.86635200      1.79409200      0.22604500
H           1.38521200      1.08409700      1.77125500
H          -0.77149800      0.28576200      0.76261300
H          -0.55761300      2.01683300      0.44134200
H          -0.24621700      0.83064900     -0.85135000
H           2.12203400     -0.39099600     -0.81441400
H           3.48293200     -0.44269800      1.93660400
H           3.97572600     -1.33895400      0.49596300
H           4.07166300      1.73129800      0.83290600
H           4.41469100      0.88801700     -0.69975700
H           5.44356800      0.61063100      0.72896200
H           0.33894300     -1.72710300      0.23911000
H           1.89986600     -2.52880600      0.50752200
H           1.13164100     -1.61901100      1.83356800
