20
b3lypvdz=-236.902143322902 
C           1.44529400      0.96612700      0.66604000
C           2.08465700     -0.39704900      0.38413200
C           3.50745600     -0.51127300      0.94798700
C           5.52741200     -0.51996800     -1.42210100
C           4.29315900     -1.74979600      0.48747300
C           4.72167000     -1.75449700     -0.99376500
H           0.41520800      1.02454000      0.27792600
H           2.02299300      1.77754900      0.19056500
H           1.41197300      1.17907800      1.74889000
H           1.45990900     -1.20256200      0.81376500
H           2.09175500     -0.57418600     -0.70747900
H           4.07508100      0.39983500      0.68351000
H           3.45282900     -0.50946200      2.05237500
H           4.90627700      0.39014700     -1.44812700
H           5.95660100     -0.65030200     -2.42921000
H           6.36437600     -0.32485500     -0.72904500
H           5.20246800     -1.84087200      1.10942800
H           3.69481900     -2.65708900      0.69480100
H           3.83752000     -1.85799600     -1.64849600
H           5.32864300     -2.65977100     -1.17387000
