14
b3lypvdz=-158.333416783547 
C           4.29481300     -1.72482500      0.49134100
C           5.58670800     -0.57398700     -1.43134700
C           3.54488300     -0.45208400      0.90839100
C           4.71992900     -1.75977000     -0.98714300
H           5.19084500     -1.84464000      1.12946900
H           3.65591000     -2.60325100      0.69564500
H           5.02192100      0.37301700     -1.41354500
H           5.95292900     -0.71799900     -2.46157500
H           6.46769600     -0.45320800     -0.77746100
H           2.67837100     -0.26380800      0.25119900
H           4.19652900      0.43639000      0.86877700
H           3.16827200     -0.53704900      1.94149700
H           3.81518500     -1.80503300     -1.62245400
H           5.27150700     -2.69945200     -1.17369600
