21
b3lypvdz=-312.084493562919 
C           2.14362000      2.18575000      0.20667400
C           3.59355500     -0.40477200      0.91599100
C           4.36416100      0.81256700      0.37432700
C           5.53775900     -0.61567500     -1.42813800
C           3.61715000      2.14393200      0.62994000
C           4.75992100      0.65698000     -1.10619500
O           6.06094200     -0.47636300     -2.74588100
H           1.53538700      1.45923600      0.76929800
H           2.00878300      1.97067500     -0.86706900
H           1.71253300      3.18220900      0.40032300
H           2.73425900     -0.66434400      0.27442800
H           3.20292600     -0.21335500      1.93004100
H           4.23782400     -1.29675700      0.97763400
H           5.30916500      0.88161700      0.94673000
H           4.87500900     -1.50110300     -1.34983600
H           6.35204500     -0.75466800     -0.68417800
H           4.16569400      2.95315300      0.11454900
H           3.68148200      2.37520000      1.70910800
H           3.86805800      0.69967900     -1.75701600
H           5.39753300      1.50996200     -1.39867400
H           6.52019500     -1.29822300     -2.96895600
