20
b3lypvdz=-236.904722856423 
C          -0.95422900     -0.19494500      0.72222400
C          -2.22849600      0.25759100     -0.00614000
C          -0.50691800     -1.62450600      0.39671200
C          -3.51282600     -0.48806000      0.37620900
C          -4.75304000      0.05101700     -0.34534600
C          -6.05088500     -0.68362100     -0.00346000
H          -0.13787400      0.50431900      0.46600200
H          -1.10526300     -0.09386700      1.81453500
H          -2.37777200      1.33698400      0.18642700
H          -2.07223000      0.16066300     -1.09924800
H           0.41063500     -1.89253700      0.94549700
H          -0.29592200     -1.73704500     -0.68164800
H          -1.27490800     -2.36983700      0.66266100
H          -3.40749300     -1.56648400      0.15165300
H          -3.66390000     -0.41333300      1.47181500
H          -4.86584500      1.12580900     -0.10574700
H          -4.58337100     -0.00163400     -1.43811700
H          -6.91107400     -0.24297300     -0.53293700
H          -6.00014000     -1.74941400     -0.28823400
H          -6.26504800     -0.63852500      1.07874400
