12
b3lypvdz=-194.234598281159 
C           2.18557200      2.19301100      0.19248300
O           2.07705400      2.08336400     -1.22391500
C           3.63330800      2.15680300      0.68422400
C           4.33832300      0.83907500      0.34865400
H           1.63386400      1.32400700      0.59177300
H           1.67092700      3.10147500      0.56836900
H           2.53278500      2.84964700     -1.60401200
H           4.18018100      3.00505000      0.22724100
H           3.65176700      2.33564900      1.77551800
H           3.84260600     -0.00997600      0.85028500
H           4.30289400      0.64956700     -0.73603400
H           5.39252100      0.84872700      0.67031400
