15
b3lypvdz=-233.516669782629 
C           3.56206700     -0.38859600      0.92876900
C           4.35297000      0.79815700      0.36303500
C           5.56364200     -0.60161800     -1.43121000
C           4.76393600      0.65767600     -1.11096400
O           6.03535500     -0.48302500     -2.77010600
H           2.69607600     -0.63912500      0.29163300
H           3.17683700     -0.16396800      1.93717700
H           4.18356400     -1.29599400      1.01084700
H           3.74926100      1.71678100      0.46849900
H           5.25554100      0.96179100      0.98134500
H           4.92289100     -1.49863500     -1.30884900
H           6.40646400     -0.70536200     -0.71364500
H           3.86773200      0.67661200     -1.75762400
H           5.37848200      1.52526100     -1.40853600
H           6.49028200     -1.30605600     -2.99707000
