17
b3lypvdz=-197.617741266115 
C           1.37574500      0.93043000      0.68937100
C          -0.09307300      0.94342400      0.22663200
C           2.13311000     -0.36235500      0.35868600
C          -0.96815400     -0.21492000      0.73377400
C          -1.09209400     -0.30212800      2.25898800
H           1.89398800      1.78338400      0.21513300
H           1.42981500      1.11334900      1.77842300
H          -0.55389000      1.90043400      0.53698400
H          -0.11610300      0.93862800     -0.87991800
H           3.19902700     -0.27480000      0.62920800
H           1.72687900     -1.22668700      0.90996300
H           2.07659200     -0.59602700     -0.71951600
H          -1.97682000     -0.09927900      0.29767200
H          -0.58026100     -1.17305900      0.34248200
H          -1.46184500      0.64711800      2.68473200
H          -1.79968000     -1.09545500      2.55159900
H          -0.12553600     -0.53155800      2.73798700
