17
b3lypvdz=-197.615118495452 
C          -0.93353000     -0.18064700      0.70532200
C          -2.28319000      0.09411300      0.01518300
C          -0.23449800     -1.49470500      0.33631400
C          -3.52951500     -0.63589400      0.54903500
C          -3.61306200     -2.14244300      0.28670300
H          -0.25103000      0.65019400      0.44933300
H          -1.06783500     -0.12397700      1.80261600
H          -2.48449500      1.17727600      0.10767200
H          -2.18090900     -0.10228500     -1.07040600
H           0.74573200     -1.57141900      0.83415300
H          -0.05969500     -1.55800800     -0.75213100
H          -0.81904400     -2.38088600      0.62513100
H          -4.41232400     -0.15690700      0.08818100
H          -3.62090600     -0.44443600      1.63525200
H          -2.84571400     -2.71039500      0.83305800
H          -4.59175800     -2.54309300      0.59985700
H          -3.48762900     -2.37268900     -0.78617000
