21
b3lypvdz=-312.088054517885 
C           1.39158000      0.99295500      0.65100600
C           2.05167300     -0.35071900      0.28344400
C           2.19333700      2.24557300      0.27963200
C           3.49300500     -0.47508000      0.79874600
C          -0.21215000     -1.63431400      0.24689000
C           1.21997400     -1.55303000      0.77555500
O          -0.28235800     -1.60536500     -1.17555700
H           0.41207900      1.04471000      0.14691600
H           1.18319700      1.00923600      1.73901900
H           2.07708500     -0.40671800     -0.82102300
H           3.11938000      2.33855800      0.86907800
H           2.47817100      2.24299100     -0.78724700
H           1.59707700      3.15522000      0.46200800
H           4.16311600      0.26813500      0.34012400
H           3.54269000     -0.34004300      1.89489000
H           3.90549000     -1.47242900      0.56846000
H          -0.80553000     -0.76726400      0.58083600
H          -0.71057500     -2.53298300      0.66510100
H           1.74782300     -2.48305700      0.48278900
H           1.19124700     -1.56490300      1.88273000
H           0.23429000     -2.35707300     -1.50389700
