17
b3lypvdz=-197.619141192326 
C          -1.02042000     -0.28606200      0.75278200
C          -2.30162000      0.22910700      0.07833000
C          -3.57471500     -0.54872800      0.42891000
C          -4.80929700     -0.08271800     -0.34608400
C          -1.04213900     -0.26640900      2.28394100
H          -0.17248700      0.32622900      0.39674500
H          -0.81577200     -1.31562100      0.40401700
H          -2.44672400      1.29779100      0.33209400
H          -2.15727100      0.19285000     -1.01850700
H          -3.40541500     -1.62576300      0.23440000
H          -3.77540000     -0.46046700      1.51250800
H          -5.70433300     -0.65651800     -0.05592800
H          -5.02023400      0.98457200     -0.15596500
H          -4.67481300     -0.20398400     -1.43573000
H          -1.25600100      0.74500700      2.67317300
H          -1.80678500     -0.94355500      2.69783400
H          -0.07087500     -0.58413200      2.69818100
