21
b3lypvdz=-312.088925161744 
C           1.42219000      0.96975400      0.60288300
C          -0.03270300      0.99049100      0.11761700
C           2.19486800      2.23391900      0.24249600
C          -0.91411000     -0.17057700      0.61739900
C          -2.35607500     -0.00938300      0.11621400
C          -0.37355300     -1.55809800      0.24412800
O           2.32763600      2.28790900     -1.17359400
H           1.96299900      0.10889300      0.17369200
H           1.45463300      0.84776300      1.70216000
H          -0.49618100      1.93684000      0.45685300
H          -0.03815000      1.02841200     -0.98672900
H           3.18719200      2.21685400      0.73690400
H           1.65311300      3.12244100      0.63227600
H          -0.93419300     -0.10851700      1.72398800
H          -3.02506500     -0.76131400      0.56583700
H          -2.75986400      0.98732200      0.36279900
H          -2.40954800     -0.13109500     -0.98102100
H           0.61558300     -1.75459600      0.68762900
H          -0.28053600     -1.66669000     -0.85136600
H          -1.05476000     -2.34909400      0.59985900
H           2.79312400      3.10556700     -1.39842500
