17
b3lypvdz=-197.618794232939 
C          -0.15592800      1.02073500      0.22800000
C          -0.87199200     -0.25570200      0.69155900
C          -0.19564200     -1.57212400      0.27095100
C          -0.98516500      2.28996300      0.46078500
C           1.26333200     -1.71963800      0.72421800
H           0.80801400      1.11970500      0.75742600
H           0.08564800      0.93673600     -0.84849100
H          -1.90310100     -0.25204700      0.29122700
H          -0.96942400     -0.23152100      1.79441300
H          -0.24428800     -1.66510600     -0.83105300
H          -0.78615300     -2.41463000      0.67423600
H          -1.93428900      2.25452100     -0.10075700
H          -1.23370900      2.41567800      1.52900600
H          -0.43816100      3.19024800      0.13413700
H           1.91641200     -0.96834700      0.25109300
H           1.66049900     -2.71224000      0.45282900
H           1.35834800     -1.60693200      1.81912200
