17
b3lypvdz=-197.618358205003 
C           1.36241300      0.95537800      0.69770000
C           2.08283200     -0.35360300      0.33690500
C           3.50841800     -0.42555400      0.92602300
C           3.60476200     -0.43804000      2.45773600
C           1.23798200     -1.58346800      0.70329000
H           0.40605300      1.03814900      0.15525000
H           1.97468200      1.83409100      0.42984200
H           1.13618900      1.01679300      1.77615800
H           2.20066400     -0.36113800     -0.76345100
H           4.09181700      0.43036500      0.53868500
H           4.00416600     -1.33134700      0.53066400
H           3.08201600     -1.30243100      2.89845100
H           4.65887900     -0.49719900      2.77523100
H           3.17838800      0.47438800      2.90636000
H           0.27577600     -1.57452900      0.16520000
H           1.76054100     -2.51821000      0.43503200
H           1.01242500     -1.62044500      1.78292400
