20
b3lypvdz=-236.902992135 
C           2.05769100     -0.31422900      0.43139400
C           3.51455000     -0.35385600      0.93940900
C           4.35550400      0.79836700      0.35085400
C           3.56948500     -0.34088300      2.47146400
C           1.29881800     -1.63226000      0.59057300
C           4.76433800      0.60042200     -1.11007900
H           1.52581400      0.49220100      0.97046400
H           2.04284200     -0.02083100     -0.63265100
H           3.96694800     -1.30382500      0.59015000
H           3.79112300      1.74430300      0.46386600
H           5.26791100      0.92316100      0.96008300
H           2.98496700     -1.15961900      2.91926000
H           4.60488600     -0.43302500      2.83735800
H           3.16040900      0.60441100      2.87241300
H           0.26610700     -1.54862900      0.21466400
H           1.79073500     -2.44015100      0.02253100
H           1.24436300     -1.95800700      1.64262100
H           5.37828900     -0.30989000     -1.22737300
H           3.89428300      0.49503900     -1.77908600
H           5.36524000      1.44670100     -1.48121800
