20
b3lypvdz=-236.902157841915 
C           1.30180900      0.95841500      0.66956700
C          -0.16190800      0.91497000      0.18877200
C           2.11050800     -0.31828300      0.40815300
C          -0.97550300     -0.28463200      0.72837500
C          -1.09042200     -0.39911800      2.25391300
C          -0.85199100      2.26087000      0.46463600
H           1.79860900      1.80503600      0.16171500
H           1.33463500      1.19804300      1.74950200
H          -0.13636600      0.78892500     -0.91224000
H           3.16966100     -0.17288700      0.68001600
H           1.73554600     -1.17103800      0.99730500
H           2.07328900     -0.60518600     -0.65769700
H          -1.99125800     -0.22793500      0.29629900
H          -0.54052800     -1.21996700      0.33344400
H          -1.55869500      0.49276600      2.70221100
H          -1.71490800     -1.26604500      2.52797900
H          -0.10662800     -0.53968800      2.73161800
H          -1.89403900      2.25807300      0.10272100
H          -0.86507600      2.50087400      1.54227300
H          -0.32423700      3.08320800     -0.04736400
