23
b3lypvdz=-276.188340271199 
C           2.19226900     -0.59164000      0.51310300
C          -0.86349000     -0.00618200      0.51181500
C          -2.28848300      0.27044500     -0.00719000
C          -0.25605100     -1.34871100      0.08376300
C          -3.33146700     -0.71146300      0.54644900
C           1.11666800     -1.66622800      0.70122800
C          -2.69088900      1.71751100      0.30599600
H           1.94423400      0.33858600      1.05008800
H           3.16571700     -0.93994500      0.89580100
H           2.32686900     -0.32796700     -0.55070600
H          -0.20657300      0.81109600      0.16465000
H          -0.87018000      0.06529200      1.61886900
H          -2.27034600      0.15062200     -1.10915900
H          -0.17895200     -1.36745100     -1.02084300
H          -0.94234500     -2.17095300      0.35145600
H          -4.33395400     -0.48477200      0.14658000
H          -3.10502800     -1.75725700      0.28350800
H          -3.39013900     -0.64809500      1.64858500
H           1.47799600     -2.61536900      0.26703300
H           0.98921200     -1.85938300      1.78292300
H          -2.01049700      2.44154700     -0.17105700
H          -3.71280400      1.93977800     -0.04451300
H          -2.66206700      1.90423700      1.39471900
