21
b3lypvdz=-312.092421782196 
C           1.41069200      0.87855700      0.70336500
C          -0.06990400      0.96468300      0.27456300
C           2.07729800     -0.44026500      0.28469600
C           2.16647400      2.11735400      0.18361100
C          -0.94962900     -0.20944600      0.71674600
C           3.60692000      2.25179300      0.68329100
O           2.13692700      2.04634800     -1.24815700
H           1.44216400      0.94014800      1.80972200
H          -0.48908100      1.90126400      0.68714900
H          -0.11088000      1.07144000     -0.82300700
H           3.12050300     -0.49745800      0.63566400
H           1.54934500     -1.30351400      0.71755900
H           2.08043500     -0.54785100     -0.81187700
H           1.59792600      3.00925000      0.52724500
H          -2.00952900     -0.01067500      0.48481800
H          -0.67529600     -1.14499200      0.20304100
H          -0.87397500     -0.39272700      1.80365300
H           4.24161600      1.45193200      0.27108000
H           4.03647000      3.21569700      0.35717100
H           3.66472300      2.21825700      1.78457100
H           2.57980100      2.83590400     -1.59090500
