23
b3lypvdz=-276.188719280895 
C           1.41306800      0.88573000      0.79057600
C          -0.03449600      0.99328000      0.28021100
C           2.12962300     -0.43676100      0.48341000
C          -1.01249300     -0.13344700      0.67089400
C           3.62583900     -0.38643300      0.80733500
C          -2.38592200      0.11177600      0.02820000
C          -1.14505400     -0.30634600      2.18892800
H           1.99002800      1.71230000      0.33530500
H           1.45128100      1.06616800      1.88157700
H          -0.45729500      1.95530600      0.62896600
H          -0.01388600      1.05671900     -0.82409500
H           1.65895200     -1.25828600      1.05262000
H           1.99322600     -0.69385000     -0.58441500
H          -0.61669300     -1.08071500      0.25578300
H           4.13676400      0.38919200      0.21228000
H           3.79957400     -0.14934300      1.87187900
H           4.12355000     -1.34667900      0.59195600
H          -3.08417300     -0.71628500      0.23526500
H          -2.84144700      1.03664900      0.42538100
H          -2.31060200      0.22177200     -1.06687300
H          -1.50722700      0.62388500      2.66352400
H          -1.86943800     -1.10101200      2.43458100
H          -0.18787700     -0.57342100      2.66411300
