21
b3lypvdz=-312.086784338365 
C           1.32379600      0.94770800      0.68298300
C          -0.14288000      0.92163900      0.17306500
C           2.08548000     -0.34767700      0.34907200
C           2.09861200      2.16240600      0.16602800
C          -0.91794800     -0.28725600      0.72509500
C          -0.89251200      2.22646200      0.49164800
O           2.09458200      2.12824500     -1.26253100
H           1.29464200      1.05025700      1.78659100
H          -0.10608000      0.82400400     -0.92666200
H           3.13821700     -0.27676500      0.67209900
H           1.64934500     -1.22082000      0.85724100
H           2.07869500     -0.53830700     -0.73635200
H           3.13716900      2.12583600      0.55500100
H           1.64208600      3.09954300      0.54054600
H          -1.97068100     -0.25606500      0.39712700
H          -0.49817800     -1.24152200      0.37144200
H          -0.91033700     -0.30206100      1.83092300
H          -1.94746500      2.15781000      0.17699000
H          -0.87925800      2.44337100      1.57590900
H          -0.45528900      3.08810400     -0.03575400
H           2.58570500      2.90048900     -1.57416300
