17
b3lypvdz=-197.619661675108 
C           1.34969600      0.92412500      0.71186900
C           2.12621100     -0.35377200      0.36866300
C           3.58503900     -0.38823900      0.86623000
C           4.40349300      0.82491300      0.39794700
C           4.25417500     -1.70491900      0.44374300
H           0.29092800      0.83056700      0.41751700
H           1.75784700      1.80328900      0.18809800
H           1.38017100      1.13350600      1.79588300
H           1.59448700     -1.22279500      0.79752700
H           2.11596400     -0.50143900     -0.72929300
H           3.56198100     -0.36479300      1.97387400
H           4.00613800      1.76753400      0.80704200
H           4.40307500      0.90785100     -0.70407600
H           5.45252100      0.74378100      0.72995400
H           4.31757200     -1.78029900     -0.65662300
H           5.27773500     -1.78281500      0.84715500
H           3.68396700     -2.57699400      0.80709100
