21
b3lypvdz=-312.089602159748 
C           1.25425400      1.10746600      0.78484100
C          -0.17466700      1.27607500      0.25591900
C           2.26353000      2.03091500      0.11763100
C          -1.10607000      0.12812300      0.65387300
C          -2.54387600      0.29713200      0.15009500
C          -3.41805700     -0.92766000      0.42210500
O           2.35510400      1.66352300     -1.25586100
H           1.59137400      0.06826300      0.61528800
H           1.28853900      1.27852900      1.87638100
H          -0.58689300      2.23668000      0.61871400
H          -0.13386100      1.34905900     -0.84464700
H           3.24525900      1.93490300      0.62452700
H           1.93877200      3.08786700      0.22826100
H          -0.69342200     -0.82077400      0.26192100
H          -1.11437900      0.01651500      1.75540600
H          -2.99464400      1.18884200      0.62272300
H          -2.52787300      0.50918900     -0.93496500
H          -4.43061400     -0.80527300      0.00495100
H          -2.97902700     -1.83260400     -0.03204200
H          -3.51979200     -1.12194900      1.50342000
H           2.98004200      2.26467800     -1.68453900
