23
b3lypvdz=-276.188250302827 
C           1.32222300      0.98711200      0.62790800
C          -0.16473500      0.87838900      0.26806300
C           2.10341000     -0.30734800      0.36054700
C           3.55753700     -0.35039200      0.88601500
C           4.37629600      0.88591400      0.48499700
C           3.61717800     -0.57339000      2.40384200
C          -0.91525100      2.20490000      0.40768200
H           1.76925100      1.81457200      0.04757400
H           1.41191400      1.28171300      1.69090300
H          -0.63766100      0.11248700      0.91049500
H          -0.26591800      0.50481000     -0.76868800
H           1.55237500     -1.15911500      0.80115400
H           2.10993100     -0.48799700     -0.73097300
H           4.03252700     -1.22932500      0.41042000
H           4.00776800      1.79214400      0.99560500
H           4.33118800      1.07476300     -0.60117400
H           5.43702100      0.76476800      0.76202200
H           3.04941200     -1.47094600      2.70140900
H           4.65754000     -0.70821300      2.74432300
H           3.19778100      0.28242300      2.96051200
H          -1.98110300      2.09900100      0.14575300
H          -0.85907900      2.59135300      1.44069900
H          -0.48430700      2.97547700     -0.25448700
