18
b3lypvdz=-272.803082218217 
C           1.38071900      0.94807800      0.72143400
C          -0.10474700      0.98314700      0.29787500
C           2.09552400     -0.36011000      0.35397400
C           2.11400600      2.16238100      0.14305500
C          -0.92774800     -0.24369700      0.69281800
O           2.13685900      2.04332800     -1.27649100
H           1.42909000      1.05893200      1.82331500
H          -0.56124200      1.88569900      0.74413800
H          -0.14806000      1.12902700     -0.79560700
H           3.15196500     -0.32965200      0.67075100
H           1.63058500     -1.22556100      0.84970000
H           2.07600400     -0.52733900     -0.73462100
H           3.14246600      2.20726800      0.55637900
H           1.59190300      3.08980500      0.45878200
H          -1.99350200     -0.09828900      0.45017700
H          -0.59324800     -1.14832600      0.16043000
H          -0.85657300     -0.45356600      1.77499300
H           2.60180000      2.81147600     -1.63540200
