23
b3lypvdz=-276.188016224152 
C           1.41529400      0.87592100      0.63601800
C          -0.04983300      0.91234200      0.17886700
C           2.20822700      2.11365500      0.19382800
C          -0.93308600     -0.23434400      0.69675600
C          -0.49412100     -1.64792500      0.29149300
C           4.54251400      0.98910400      0.37632900
C           3.65770600      2.19771300      0.70587100
H           1.90268600     -0.03532100      0.24583900
H           1.44943300      0.79277000      1.74099800
H          -0.49733700      1.86802700      0.51125200
H          -0.08388400      0.93272300     -0.92874100
H           2.20651500      2.16378900     -0.91280200
H           1.66920200      3.01750900      0.53632700
H          -1.96440300     -0.06456300      0.33735200
H          -0.98427600     -0.17558100      1.80092200
H           0.47874900     -1.92229400      0.73285900
H          -0.40221500     -1.74552900     -0.80530600
H          -1.22664700     -2.39929400      0.63085900
H           4.20940500      0.07973500      0.90329500
H           4.53743300      0.76302700     -0.70507300
H           5.58868000      1.17407200      0.67332600
H           4.11983300      3.10550200      0.27792200
H           3.65162300      2.35216100      1.80170900
