21
b3lypvdz=-312.086924426454 
C          -0.48788000      0.64636700      0.87034900
C          -0.92053900     -0.73894000      0.35809800
C          -2.22695500     -0.68081800     -0.46472900
C           0.20702200     -1.38629500     -0.45306800
C          -3.50138800     -0.37005500      0.34346200
C          -4.00908700     -1.54865100      1.18174500
O           0.48844900     -0.56989300     -1.58592300
H           0.35715300      0.56717100      1.57547300
H          -1.30712400      1.16467400      1.39280500
H          -0.16202900      1.27631200      0.02789200
H          -1.08239000     -1.40508800      1.22665500
H          -2.09670700      0.05909900     -1.27154300
H          -2.37140100     -1.65326800     -0.97421400
H           1.10471500     -1.50095300      0.18953600
H          -0.11102900     -2.40169600     -0.77178600
H          -4.29917800     -0.05326900     -0.35132100
H          -3.32633600      0.49767200      1.00397000
H          -3.24351100     -1.91403100      1.88770000
H          -4.89387600     -1.26881900      1.77780500
H          -4.29647600     -2.39878300      0.53937400
H           1.20046300     -0.99093600     -2.08668000
