14
b3lypvdz=-158.336072971332 
C          -3.62168100     -0.56612000      0.48763800
C          -4.81178700     -0.01898100     -0.31354500
C          -2.30282400      0.09925400      0.06771200
C          -3.52647200     -2.09307200      0.36659500
H          -3.79708600     -0.32177200      1.55354500
H          -5.75945200     -0.47310200      0.02312000
H          -4.90423600      1.07473200     -0.19738400
H          -4.70181500     -0.23602800     -1.39181100
H          -1.45711300     -0.28497600      0.66216500
H          -2.34023800      1.19367100      0.20637600
H          -2.08224600     -0.09933100     -0.99684200
H          -2.70628900     -2.49390600      0.98515000
H          -4.45977400     -2.58139900      0.69513200
H          -3.33678600     -2.39677000     -0.67885000
