18
b3lypvdz=-272.803174437872 
C           2.15294900      2.23803400      0.19172800
C           3.59769000     -0.42462400      0.85443800
C           4.36185700      0.82276000      0.38126600
C           3.60491700      2.14310000      0.66532800
C           4.77956300      0.67401400     -1.09059000
O           1.98370600      2.12385700     -1.22013300
H           1.55171400      1.42050500      0.62178900
H           1.70892200      3.18232600      0.57078400
H           2.70813700     -0.61724200      0.23175000
H           3.26176800     -0.33428100      1.90229000
H           4.24290600     -1.31697400      0.78584800
H           5.29126900      0.88345300      0.97867900
H           4.17586600      2.98192700      0.21912200
H           3.61039500      2.32762600      1.75677400
H           5.42978900     -0.20685400     -1.22903900
H           3.89869000      0.56344000     -1.74076300
H           5.34511000      1.55700000     -1.43647000
H           2.51005100      2.82743400     -1.62889800
