18
b3lypvdz=-235.700479370627 
C          -0.06376800      0.96725200      0.29191800
C          -0.95792600     -0.21342400      0.72917800
C          -2.32470400      0.15727900      0.10532600
C          -1.03287200     -0.37228000      2.25370700
C          -0.96621700      2.21487300      0.42047800
C          -2.41961800      1.70688100      0.18081900
H           0.86662900      1.04809300      0.87677000
H           0.23027000      0.82304400     -0.76298400
H          -0.58144500     -1.16181800      0.30818400
H          -3.16565100     -0.35000000      0.60506600
H          -2.34310700     -0.16622600     -0.94929500
H          -1.41792400      0.53673000      2.74744700
H          -1.70589100     -1.20140200      2.52966500
H          -0.04075500     -0.59075300      2.68361200
H          -0.87572000      2.64733600      1.43107600
H          -0.67596000      3.00982700     -0.28406600
H          -2.84838400      2.11898300     -0.74616800
H          -3.08495700      2.03090500      0.99696600
