20
b3lypvdz=-236.902082078939 
C          -1.03399300     -0.33276900      0.75245100
C          -2.27937400      0.25979400      0.05366700
C          -3.56748200     -0.49085500      0.44421000
C          -4.80993000     -0.12550200     -0.37202500
C          -1.04330300     -0.31118500      2.28512900
C          -2.38863700      1.77746900      0.26726300
H          -0.14554300      0.21715700      0.39088500
H          -0.90115600     -1.37539300      0.41090500
H          -2.12830500      0.08969000     -1.03110800
H          -3.38013000     -1.57603000      0.33621100
H          -3.77983700     -0.32178200      1.51655800
H          -5.66335900     -0.76314300     -0.08968400
H          -5.11573700      0.92168000     -0.21113900
H          -4.63868600     -0.26153100     -1.45484800
H          -1.19632600      0.70494600      2.68565500
H          -1.83432100     -0.95315500      2.70488900
H          -0.08386500     -0.68021900      2.68366200
H          -1.44298300      2.28154600      0.00367300
H          -3.17743400      2.22484800     -0.35701000
H          -2.61920100      2.03013300      1.31685700
