20
b3lypvdz=-236.906183152198 
C           0.13496600      0.77376600      0.27600600
C          -1.09100800     -0.04434400      0.68653200
C          -2.37577800      0.36518200     -0.04011000
C          -3.61679800     -0.42535200      0.38415800
C          -4.89790100      0.00789000     -0.33560900
C          -6.14598400     -0.77186500      0.08358600
H           1.03670200      0.44950700      0.82029700
H          -0.00909500      1.84891200      0.48474300
H           0.34239600      0.67244000     -0.80383400
H          -0.89466000     -1.11746800      0.49881800
H          -1.24734900      0.05079600      1.77830700
H          -2.55507800      1.44548800      0.13056200
H          -2.23091500      0.24929600     -1.13276400
H          -3.44525500     -1.50485500      0.20165200
H          -3.75751300     -0.31808100      1.47821600
H          -5.06172300      1.08733500     -0.15205300
H          -4.75229400     -0.09719700     -1.42813800
H          -7.04108100     -0.40853900     -0.44672000
H          -6.04614100     -1.84952900     -0.13714800
H          -6.33549100     -0.67218100      1.16699800
