15
b3lypvdz=-233.517842440924 
C           1.35535400      0.97284400      0.68372500
C          -0.10770800      0.91135500      0.20788800
C           2.13876400      2.17748100      0.17583200
C          -0.92769000      2.17452300      0.49349700
O           2.12183600      2.15196900     -1.24979100
H           1.87899700      0.05497000      0.36221500
H           1.39276900      0.98842500      1.78975500
H          -0.59149100      0.04361800      0.69080400
H          -0.11925100      0.71498400     -0.87738600
H           3.17604100      2.13395400      0.56674300
H           1.68532400      3.11210400      0.56567700
H          -1.98513000      2.02944600      0.21576600
H          -0.89781400      2.45133500      1.56306600
H          -0.55380300      3.03420100     -0.08664900
H           2.59380100      2.93579100     -1.56404100
