20
b3lypvdz=-236.902560354364 
C           2.13439900     -0.48241900      0.45874200
C          -0.96404700     -0.00038900      0.56051600
C          -2.37112100      0.17784700     -0.03301300
C          -0.30218500     -1.35231300      0.25731700
C          -3.41992800     -0.83226000      0.43931700
C           1.10114800     -1.54029500      0.85794100
H           1.87621200      0.51583900      0.84945900
H           3.13179800     -0.73747200      0.85307800
H           2.22107400     -0.39310400     -0.63839800
H          -0.32581600      0.81345400      0.17500600
H          -1.00854600      0.14666100      1.65816900
H          -2.72353200      1.19647700      0.20998400
H          -2.30256500      0.13609000     -1.13702400
H          -0.25241000     -1.48998700     -0.84089600
H          -0.94318300     -2.16875900      0.63325300
H          -4.40460900     -0.60919000     -0.00342900
H          -3.16186500     -1.86533800      0.15288700
H          -3.53532500     -0.81171700      1.53745400
H           1.47514600     -2.53492600      0.55490700
H           1.02485400     -1.57209900      1.96113200
