18
b3lypvdz=-272.808497516611 
C          -0.13972100      1.02022200      0.24551100
C          -0.86202100     -0.24831400      0.72414300
C          -0.18110800     -1.54633400      0.25657700
C          -1.09055200     -0.22890400      2.24244700
C           1.27737900     -1.72179000      0.69041000
O          -0.28363600     -1.54596100     -1.17450500
H           0.83246500      1.15605400      0.75097900
H          -0.75088000      1.91258700      0.46362800
H           0.04030200      0.98480700     -0.84016100
H          -1.85391500     -0.25913200      0.23670100
H          -0.77367600     -2.39456800      0.66324300
H          -1.70790600      0.63846200      2.52907500
H          -1.61744400     -1.13574000      2.58726300
H          -0.14070200     -0.15566700      2.79977900
H           1.91779200     -0.94473500      0.24386900
H           1.66046000     -2.69816900      0.34175900
H           1.39525800     -1.69336600      1.78658200
H           0.11600300     -2.36665200     -1.49600200
