20
b3lypvdz=-236.90359955902 
C           1.41201600      0.92296000      0.70710300
C          -0.04646500      0.99802500      0.21884300
C           2.12724900     -0.39852600      0.39737700
C          -0.99216200     -0.13141000      0.67519500
C          -2.39417600      0.07266500      0.08003900
C          -1.06491700     -0.25887800      2.20244200
H           1.97072000      1.75337600      0.23951000
H           1.45626100      1.11132200      1.79551800
H          -0.47737500      1.96547800      0.54195800
H          -0.04723400      1.02052400     -0.88774200
H           3.18919800     -0.35235700      0.69150500
H           1.67755900     -1.24632400      0.93996500
H           2.08674200     -0.63692700     -0.68043200
H          -0.59818800     -1.08483800      0.27383100
H          -3.07024600     -0.75698900      0.34639900
H          -2.84711100      1.00561400      0.46086200
H          -2.36390900      0.13996100     -1.02091700
H          -1.41256900      0.68427400      2.66197700
H          -1.77388200     -1.04969200      2.49929300
H          -0.08881200     -0.50866100      2.64787400
