17
b3lypvdz=-197.619982842123 
C           3.66999000     -0.38784900      0.92308400
C           4.42257800      0.84449600      0.38328900
C           3.51122500     -0.44860200      2.44456600
C           3.67959200      2.16109400      0.65493900
C           4.70613900      0.68556000     -1.11654900
H           2.67227100     -0.43068400      0.44478400
H           4.20343900     -1.29384600      0.58182300
H           5.39616300      0.89631300      0.90906500
H           2.99173200     -1.37104300      2.75265500
H           4.49236700     -0.43602400      2.95017900
H           2.92607900      0.39713400      2.84098000
H           2.69867300      2.17325900      0.14732600
H           4.25629700      3.02267500      0.27852200
H           3.50218800      2.32686800      1.72996900
H           5.31601800     -0.21034000     -1.32162200
H           3.76513000      0.58518600     -1.68696400
H           5.24761800      1.55700400     -1.52084600
