23
b3lypvdz=-276.184703446989 
C          -0.94586800     -0.23856200      0.75152600
C          -2.27610100      0.08916300      0.02318100
C          -0.23885100     -1.51261000      0.25737500
C          -3.57857700     -0.60751900      0.47379500
C          -4.78102300     -0.01544200     -0.27830600
C          -1.09232800     -0.24942900      2.28104100
C          -3.56525200     -2.13529400      0.32618100
H          -0.26632400      0.59789100      0.49783000
H          -2.44622500      1.17692400      0.13424000
H          -2.13701900     -0.08304700     -1.06279600
H           0.76856800     -1.58906600      0.70088100
H          -0.11923400     -1.50500600     -0.83936100
H          -0.78319000     -2.42984400      0.53106500
H          -3.72340500     -0.37561900      1.54642000
H          -5.72662100     -0.45136900      0.08582800
H          -4.84215300      1.07882300     -0.15029500
H          -4.71697300     -0.22403700     -1.36244000
H          -1.52975700      0.69093100      2.65887300
H          -1.73876600     -1.07467900      2.62542900
H          -0.11165200     -0.38184000      2.76836900
H          -2.82790100     -2.61466700      0.98616900
H          -4.55232200     -2.55838000      0.58105600
H          -3.33012600     -2.43702100     -0.71046100
