21
b3lypvdz=-274.997375850933 
C           1.42069500      0.94205200      0.74314500
C          -0.01800300      1.06434900      0.21620900
C           2.06465200     -0.39426100      0.33872000
C          -0.90339400     -0.12552100      0.63261900
C          -2.32400700     -0.00617800      0.06759700
C          -0.25259200     -1.46106000      0.22694500
C           1.19382500     -1.59800800      0.72950100
H           2.03162400      1.78287900      0.37092300
H           1.41528100      1.02547600      1.84727300
H          -0.47318000      2.00677800      0.56981900
H           0.00087400      1.12260000     -0.89037100
H           3.06154400     -0.49223500      0.80244100
H           2.22570900     -0.39826000     -0.75618100
H          -0.97411600     -0.11075100      1.73908900
H          -2.96658900     -0.83614200      0.40696100
H          -2.80247000      0.93625000      0.38434100
H          -2.31320300     -0.02555900     -1.03747200
H          -0.27230200     -1.54417800     -0.87791200
H          -0.85751600     -2.30226600      0.61102200
H           1.64024300     -2.52702000      0.33379300
H           1.18822500     -1.70344300      1.83133900
