18
b3lypvdz=-272.802867775644 
C           2.17392600      2.28745200      0.19509200
C           3.63624800     -0.43962400      0.91913800
C           4.29220100      0.82045500      0.33032400
C           3.55203600     -0.46925900      2.44698700
C           3.62009300      2.15887700      0.67777600
O           2.03504700      2.09822700     -1.20970500
H           1.54027100      1.50930700      0.65287200
H           1.75591400      3.26240200      0.51992400
H           2.62563000     -0.56942300      0.49057800
H           4.21486500     -1.31346800      0.57015100
H           4.31293300      0.71881400     -0.76778100
H           5.34489200      0.86707400      0.66571600
H           3.14905700     -1.43070900      2.80608600
H           4.54644600     -0.33230100      2.90766900
H           2.89514300      0.32177900      2.84509300
H           4.21060700      2.97825500      0.22262600
H           3.65254700      2.34548700      1.76705000
H           2.57824500      2.77275600     -1.64509700
