20
b3lypvdz=-236.903670789786 
C           2.16182700      2.23465900      0.23103300
C           3.62867000     -0.46800400      0.91455800
C           4.30394300      0.78586100      0.32523300
C           3.51221900     -0.40948000      2.44323400
C           3.63776300      2.13819900      0.63739000
C           4.37137200     -1.73771300      0.47574700
H           1.52715000      1.54392200      0.80975200
H           2.02047200      1.99439000     -0.83819700
H           1.77023600      3.25174400      0.39978000
H           2.60415400     -0.52975800      0.49969100
H           4.36291600      0.66542700     -0.77347300
H           5.35082600      0.81962400      0.68473100
H           3.04862500     -1.32824700      2.83991600
H           4.50843100     -0.30950500      2.91121000
H           2.89634300      0.43761800      2.78466100
H           4.20587900      2.92796200      0.11459800
H           3.73655000      2.36545800      1.71475900
H           4.41830800     -1.81923800     -0.62344300
H           5.40827000     -1.74065700      0.85807200
H           3.87474600     -2.64426000      0.86034700
