17
b3lypvdz=-197.619932255956 
C          -2.31870500      0.10115100      0.08317200
C          -3.63534500     -0.58819600      0.47374800
C          -4.81006400     -0.02125100     -0.34566600
C          -6.19899200     -0.54297100      0.04860600
C          -3.50103500     -2.11253400      0.34384700
H          -1.47824900     -0.27075900      0.69221500
H          -2.37841100      1.19425900      0.22519300
H          -2.07392900     -0.08839700     -0.97776600
H          -3.83161700     -0.35285900      1.53935100
H          -4.80484900      1.07996000     -0.24000400
H          -4.63306200     -0.22986600     -1.41942900
H          -6.98748600     -0.01819200     -0.51492400
H          -6.31094000     -1.62054200     -0.15949100
H          -6.39403000     -0.38248700      1.12390600
H          -2.63282200     -2.48069300      0.91591100
H          -4.38895800     -2.64235600      0.72434700
H          -3.35520500     -2.40916800     -0.71101600
