18
b3lypvdz=-272.80897873497 
C           2.18843900     -0.48452400      0.45712900
C          -0.91243700     -0.07965900      0.57738300
C          -2.39367600     -0.03390500      0.19701600
C          -0.22795800     -1.36887800      0.11595000
C           1.17351200     -1.60150500      0.70730300
O          -0.18599600     -1.30082800     -1.31301700
H           1.93245900      0.43193500      1.01323000
H           3.19737500     -0.79315000      0.77434400
H           2.22508600     -0.22510000     -0.61277400
H          -0.38040000      0.77234600      0.12099600
H          -0.79467200      0.01766500      1.67163700
H          -2.95001400     -0.85818500      0.67506900
H          -2.86546800      0.90878300      0.51759000
H          -2.51674300     -0.13671400     -0.89242100
H          -0.86411300     -2.22398400      0.43363300
H           1.55806000     -2.54659200      0.27739300
H           1.06953600     -1.79301600      1.79076700
H           0.21330900     -2.12029200     -1.63992900
