23
b3lypvdz=-276.186628715848 
C           2.02626000     -0.38533400      0.31749700
C           3.44162200     -0.30911800      0.90954300
C           4.34445300      0.84118000      0.41128500
C           5.48624700     -0.61940000     -1.41105000
C           1.31917000     -1.70081100      0.66383500
C           3.72517300      2.22711600      0.65103300
C           4.78725400      0.70170000     -1.06238000
H           1.42216700      0.46479900      0.68361200
H           2.06542700     -0.27857300     -0.78237400
H           3.36104200     -0.24102400      2.01103200
H           3.95621000     -1.26788100      0.71506600
H           5.26768900      0.78434200      1.02090900
H           4.79152100     -1.47464800     -1.38833500
H           5.92617200     -0.58233400     -2.42133700
H           6.30396900     -0.83889700     -0.70279600
H           0.29797200     -1.73512300      0.25023800
H           1.87069500     -2.56557400      0.25525600
H           1.24625100     -1.84357700      1.75638100
H           2.85135400      2.40075400      0.00064500
H           4.45788900      3.02311100      0.43334100
H           3.39098400      2.35080300      1.69559000
H           3.91808600      0.85127800     -1.73027900
H           5.47479400      1.53801000     -1.28621000
