21
b3lypvdz=-312.089612818953 
C           2.10855600     -0.42652100      0.33390000
C           3.55957900     -0.44007800      0.85629200
C          -0.19877800     -1.52312800      0.23726300
C           4.30300000      0.81223900      0.36590600
C           1.24677300     -1.63436300      0.72823600
C           4.32157700     -1.71940100      0.47619700
O          -0.30003400     -1.44598400     -1.18283600
H           1.61614300      0.49172100      0.70658200
H           2.11580800     -0.34048100     -0.76828000
H           3.52232100     -0.39223200      1.96306300
H          -0.65553600     -0.59261700      0.61494900
H          -0.80447700     -2.36618900      0.63104000
H           3.77066300      1.73344800      0.65960800
H           4.39228800      0.81345200     -0.73538000
H           5.32088800      0.86525400      0.78752800
H           1.68151900     -2.56143400      0.30963200
H           1.24716400     -1.75744600      1.82831800
H           4.31747600     -1.87657200     -0.61793600
H           5.37341000     -1.66220300      0.80446300
H           3.88408300     -2.61416500      0.94772400
H           0.09267500     -2.25600200     -1.54086900
