23
b3lypvdz=-276.188718987829 
C           1.37656800      0.88155900      0.51746500
C          -0.10277000      1.04511100      0.14875000
C           2.24522100      2.04379700      0.01522000
C          -0.97495900     -0.16407100      0.50330900
C          -2.46680900      0.08871700      0.28103500
C           4.49156500      0.88555700      0.61036000
C           3.63785100      2.15594700      0.65663600
H           1.75494600     -0.07505700      0.11276800
H           1.46620200      0.79893200      1.61780300
H          -0.50047800      1.94091000      0.66203100
H          -0.19648100      1.25954000     -0.93354000
H           2.34780600      1.96818100     -1.08399800
H           1.70592700      2.99174400      0.20053300
H          -0.64802300     -1.03465500     -0.09422200
H          -0.80220000     -0.44359300      1.55940400
H          -3.07660000     -0.78757600      0.55629800
H          -2.82189800      0.93927700      0.88766900
H          -2.68182500      0.32857000     -0.77471800
H           4.02383600      0.05986700      1.17209000
H           4.65147300      0.53273200     -0.42334800
H           5.48243200      1.06618500      1.05857600
H           4.18442900      2.97595200      0.15748800
H           3.52138800      2.46997600      1.71068900
