20
b3lypvdz=-236.903490547236 
C           2.12869700     -0.39597300      0.37059300
C           3.57855900     -0.44400400      0.91810800
C           4.32696200      0.78824200      0.37204600
C           3.58306400     -0.38237300      2.45681000
C           1.23160200     -1.60191700      0.67957400
C           4.30205800     -1.72516200      0.45786400
H           1.64482400      0.51777400      0.76227100
H           2.17519500     -0.26551500     -0.72720200
H           3.83303300      1.72329800      0.68812600
H           4.35810800      0.78097400     -0.73137900
H           5.36698400      0.81944400      0.73859900
H           3.11354200     -1.27165500      2.90751700
H           4.61468700     -0.32405000      2.84410600
H           3.03843400      0.50460100      2.82355700
H           0.22224000     -1.44170400      0.26584800
H           1.62416100     -2.52881000      0.23108200
H           1.12062800     -1.77107700      1.76373700
H           4.27258200     -1.83208400     -0.64064800
H           5.36153800     -1.70950600      0.76616400
H           3.84930200     -2.62930400      0.89682700
