20
b3lypvdz=-236.903615367933 
C           2.01737000     -0.36034200      0.36706300
C           3.45694000     -0.36078900      0.89717200
C          -0.22287800     -1.58987400      0.26810500
C           4.33338500      0.80756300      0.41477900
C           1.25554800     -1.65775000      0.66206600
C           3.72563300      2.20369200      0.59722900
H           1.46300500      0.48960000      0.80641900
H           2.01941200     -0.18542900     -0.72691600
H           3.42831700     -0.36808100      2.00412600
H           3.94932800     -1.30659600      0.60275000
H          -0.74623000     -0.79339100      0.82364600
H          -0.34350200     -1.37244700     -0.80798000
H          -0.74626500     -2.53711900      0.47990300
H           4.57435100      0.66073700     -0.65470400
H           5.29806400      0.76018900      0.95062400
H           1.74695000     -2.49365500      0.13032800
H           1.33938400     -1.89521900      1.73956600
H           2.84672200      2.35524300     -0.05068800
H           4.45802700      2.98637600      0.33824800
H           3.40193800      2.37729300      1.63896500
