15
b3lypvdz=-233.523443683998 
C           1.33349900      0.98226000      0.73668800
C           2.16121100      2.14869700      0.21299100
C           4.38750000      0.83810900      0.33327000
C           3.63143400      2.12958600      0.66990800
O           2.06352200      2.09155100     -1.21717800
H           0.27664100      1.10455800      0.44894300
H           1.68275800      0.03100000      0.30474400
H           1.39222400      0.91505400      1.83585100
H           1.70033700      3.09184400      0.57855700
H           3.99791300     -0.02202500      0.90169300
H           4.29864400      0.60269900     -0.74014000
H           5.45854500      0.93658700      0.57794400
H           4.14478000      2.98467900      0.18917600
H           3.67793500      2.31932600      1.75900300
H           2.54515500      2.85357400     -1.57045100
