21
b3lypvdz=-312.087290366116 
C          -0.85232500     -0.11466100      0.56083400
C          -2.19103400      0.36593800     -0.04242200
C          -0.49556100     -1.57717200      0.31356600
C          -3.37055200     -0.55618600      0.32325300
C          -4.69957500     -0.21044600     -0.35628400
C          -2.43054000      1.82618100      0.36890200
O          -0.53893100     -1.82709600     -1.08664200
H          -0.04378100      0.51601800      0.14925800
H          -0.84906100      0.05200200      1.65565000
H          -2.07558100      0.32223600     -1.14094600
H           0.51114400     -1.77835700      0.73412500
H          -1.20023200     -2.23939300      0.85562900
H          -3.10592300     -1.58808300      0.03931400
H          -3.50660400     -0.55829200      1.42284500
H          -5.47362700     -0.95458700     -0.10631100
H          -5.08373200      0.77561100     -0.04806800
H          -4.59651900     -0.19943700     -1.45586400
H          -1.56775400      2.46275000      0.10937200
H          -3.31369100      2.26168500     -0.12323400
H          -2.58030800      1.90758200      1.46141900
H          -0.28171300     -2.74769400     -1.23439700
