20
b3lypvdz=-236.904776239519 
C           1.38961000      0.97227500      0.65625600
C          -0.07235400      0.93810200      0.20138900
C           2.11224200     -0.36059200      0.42659000
C           3.55347000     -0.43670400      0.96466400
C           3.58936200     -0.46162000      2.49921100
C           4.28281100     -1.66009000      0.39349600
H           1.93026600      1.77404200      0.11910500
H           1.43015000      1.24529300      1.72646400
H          -0.63952600      0.16834000      0.75158200
H          -0.57755900      1.90351800      0.37137900
H          -0.15682700      0.69873800     -0.87364600
H           1.52508500     -1.17987100      0.88663100
H           2.12070900     -0.57327600     -0.65968700
H           4.09323200      0.46800400      0.61914100
H           2.98974300     -1.30469400      2.88778400
H           4.61858500     -0.59250500      2.87264200
H           3.18579700      0.45959000      2.94908100
H           4.31441300     -1.63581300     -0.70862700
H           5.32103200     -1.71689900      0.76074200
H           3.77515900     -2.59394000      0.69500300
