20
b3lypvdz=-236.902871920663 
C           1.36774600      0.88823600      0.69394800
C          -0.08519900      1.05661100      0.22816600
C           2.05783300     -0.43332900      0.29302400
C           3.49905300     -0.43844500      0.84417600
C           1.25956000     -1.67684800      0.71188000
C           4.33158100     -1.68419100      0.51258600
H           1.96946600      1.72408800      0.29160100
H           1.40648100      0.99025500      1.79626000
H          -0.76256500      0.34113700      0.72127300
H          -0.45363300      2.06831700      0.46834700
H          -0.18054000      0.91572000     -0.86333500
H           2.12646500     -0.44708900     -0.81436700
H           4.01944100      0.45412300      0.45112000
H           3.46423500     -0.30997000      1.94387200
H           0.25699100     -1.68384700      0.25633600
H           1.76011600     -2.60195100      0.38463300
H           1.13579100     -1.72962400      1.80904100
H           4.34374800     -1.88462400     -0.57329600
H           5.37610300     -1.55473100      0.84214500
H           3.94162800     -2.58333800      1.01609000
