21
b3lypvdz=-274.997362456373 
C           1.38557400      0.95371100      0.68408300
C           2.06815300     -0.37049900      0.29842500
C           2.17994600      2.17900300      0.20045900
C           3.51040800     -0.40110400      0.83321100
C           4.32773200      0.81271400      0.36084600
C           1.26599100     -1.59521000      0.75331900
C           3.63687000      2.14615500      0.69135200
H           0.36223100      0.98238000      0.26854400
H           1.27981100      0.99925800      1.78586300
H           2.12319700     -0.40025700     -0.80921100
H           2.16510400      2.20642000     -0.90616000
H           1.68934100      3.10675700      0.54401700
H           3.48626700     -0.42246600      1.94094500
H           4.00834400     -1.33417900      0.51282500
H           4.47538400      0.73971300     -0.73361200
H           5.33334200      0.79078200      0.81556000
H           0.24789600     -1.58637800      0.32908000
H           1.75453300     -2.53104300      0.43226900
H           1.17230400     -1.62667300      1.85396800
H           4.20478900      2.98255300      0.24737400
H           3.65448300      2.30206500      1.78754100
