21
b3lypvdz=-312.092299889504 
C           2.10924100     -0.37201800      0.38833900
C          -1.01290600     -0.27392400      0.68837600
C           3.57326600     -0.46266500      0.85456400
C          -0.21713700     -1.50139200      0.25767000
C           1.22245000     -1.55513200      0.79921000
C           4.31287900     -1.73313800      0.41562400
O          -0.22975900     -1.49360400     -1.17558300
H           1.67516700      0.56259400      0.78430600
H           2.07524600     -0.28055700     -0.71223900
H          -0.58228400      0.63957500      0.24931300
H          -2.05415000     -0.35347700      0.33893000
H          -1.01717200     -0.16936000      1.78606800
H           4.11252800      0.41931700      0.46429700
H           3.61714600     -0.37952000      1.95770000
H          -0.74756700     -2.40269600      0.63512700
H           1.67086000     -2.49541900      0.42570300
H           1.19317200     -1.65628700      1.90119100
H           4.24981900     -1.87810200     -0.67826800
H           5.38096600     -1.68510100      0.68590500
H           3.89843200     -2.63613300      0.89340100
H           0.25210300     -2.27876000     -1.47553300
