23
b3lypvdz=-276.187505883047 
C           1.39124400      0.93790700      0.64968500
C          -0.08830700      0.97716200      0.25878900
C           2.06152300     -0.41391300      0.37417800
C           3.49634400     -0.49820800      0.91141400
C           5.62032700     -0.53612000     -1.39748600
C           4.28425800     -1.73931300      0.45884900
C           4.74752800     -1.73819500     -1.01130800
H           1.94085700      1.72764000      0.10435900
H           1.49605400      1.18641900      1.72287300
H          -0.67133600      0.23312500      0.82700900
H          -0.53413400      1.96596700      0.45828300
H          -0.22897000      0.75532400     -0.81392600
H           1.45982600     -1.22449500      0.82875800
H           2.04514000     -0.60455500     -0.71622000
H           4.05003700      0.41396400      0.62416800
H           3.45875300     -0.48088900      2.01617900
H           5.04350900      0.40318300     -1.41993700
H           6.06628500     -0.66835000     -2.39693800
H           6.44986000     -0.39539800     -0.68238400
H           5.17855700     -1.84470400      1.09988700
H           3.67215800     -2.64187700      0.64573400
H           3.87560800     -1.78966400     -1.68832900
H           5.31797500     -2.66701200     -1.19273700
