20
b3lypvdz=-236.90135688994 
C          -0.13074500      1.01821400      0.36668300
C          -0.87775400     -0.25794000      0.81749900
C          -0.20784400     -1.54851600      0.28746200
C          -1.06921000     -0.30840700      2.34036600
C          -1.01218200      2.26894900      0.33230100
C           1.28414900     -1.69984300      0.60203400
H           0.73688900      1.19550600      1.02703200
H           0.28936700      0.85551500     -0.64265800
H          -1.88289000     -0.21843100      0.35747900
H          -0.34752000     -1.58833800     -0.80835300
H          -0.75609400     -2.41820400      0.69269700
H          -1.52343500      0.61750100      2.72887300
H          -1.73028500     -1.14073900      2.63306500
H          -0.10768600     -0.44709900      2.86340600
H          -1.85053900      2.14325700     -0.37428600
H          -1.45186500      2.49507000      1.31838500
H          -0.43914800      3.15531900      0.01388900
H           1.87842400     -0.87980100      0.16754200
H           1.67984000     -2.63872300      0.18195100
H           1.48283000     -1.71379000      1.68653300
