17
b3lypvdz=-197.618828228877 
C           2.08595400     -0.42300400      0.32124600
C           3.52987100     -0.44472200      0.85732100
C          -0.23658000     -1.49582100      0.26044200
C           1.22701100     -1.63728900      0.70211000
C           4.33753900     -1.69823400      0.49591200
H           1.59083700      0.49385600      0.69289500
H           2.10763600     -0.33321800     -0.78276200
H           4.05794900      0.44711600      0.47351700
H           3.50997100     -0.33654600      1.95877700
H          -0.70936300     -0.61376500      0.72568300
H          -0.31477800     -1.37817800     -0.83502300
H          -0.83053700     -2.38049700      0.54618800
H           1.65243700     -2.55012100      0.24877000
H           1.26621800     -1.78663800      1.79798100
H           4.34453200     -1.87431600     -0.59451800
H           5.38489200     -1.59818900      0.82756000
H           3.92791000     -2.60033500      0.97940200
