23
b3lypvdz=-276.188092783963 
C           1.45122300      0.92410400      0.64747900
C          -0.02992700      0.92656700      0.24440600
C           2.16312700      2.24309400      0.32225100
C          -0.87414500     -0.28721600      0.70077900
C          -0.22320200     -1.63939300      0.37122400
C          -1.24726600     -0.22123400      2.18960600
C           3.67537100      2.18229900      0.54556000
H           1.97242400      0.09897600      0.12870000
H           1.55920100      0.71664300      1.72894900
H          -0.50880200      1.84497800      0.63279800
H          -0.08776900      1.00522200     -0.85791500
H           1.95779800      2.52129000     -0.72870400
H           1.72470100      3.05150700      0.93602400
H          -1.81930500     -0.22789600      0.12948900
H           0.67003500     -1.81928900      0.99268700
H           0.09012300     -1.70269100     -0.68464200
H          -0.92642500     -2.46660900      0.56613300
H          -1.72553100      0.73967200      2.44472300
H          -1.95600000     -1.02321400      2.45545800
H          -0.36254700     -0.33980300      2.83890400
H           4.14379300      1.42108200     -0.10113700
H           4.16102700      3.14627600      0.32087000
H           3.91939600      1.91793400      1.58935800
