20
b3lypvdz=-236.903346913252 
C          -0.90828100     -0.20082100      0.66713200
C          -2.19881700      0.32621100      0.00444100
C          -0.49144100     -1.62348800      0.28390700
C          -3.42626600     -0.54211600      0.34921400
C          -4.72437600     -0.16895100     -0.37256500
C          -2.40489500      1.79970300      0.38556500
H          -0.08652200      0.49270100      0.41024200
H          -1.02116300     -0.13315700      1.76709900
H          -2.05316700      0.27135900     -1.09445300
H           0.44813900     -1.90669200      0.78552900
H          -0.32891800     -1.71469100     -0.80439700
H          -1.24565200     -2.37435500      0.56896200
H          -3.19460300     -1.59514500      0.11489100
H          -3.58931800     -0.50191400      1.44450400
H          -5.53007000     -0.87745200     -0.11998100
H          -5.07844700      0.83840500     -0.09873800
H          -4.59918400     -0.19081800     -1.46995400
H          -1.51994700      2.40642400      0.12954800
H          -3.26848700      2.25076400     -0.12637100
H          -2.57008600      1.90353400      1.47382600
