23
b3lypvdz=-276.185615064511 
C           1.35608300      0.89173800      0.70461500
C          -0.06340100      1.04789200      0.14366700
C           2.05646500     -0.44514000      0.38008900
C           3.50821100     -0.46901200      0.93892700
C           3.59114300     -0.41802600      2.47308300
C           1.22376400     -1.67010700      0.79072200
C           4.31738000     -1.66562500      0.41282500
H           1.98716900      1.71129400      0.31258100
H           1.31909700      1.03521400      1.80023800
H          -0.77239000      0.34879200      0.61572700
H          -0.44375000      2.06668300      0.32765300
H          -0.09609600      0.87062900     -0.94625300
H           2.15897200     -0.48601800     -0.72314200
H           3.99652300      0.44585100      0.54986000
H           3.07350700     -1.27449400      2.93683800
H           4.64316300     -0.45780900      2.80128700
H           3.15211100      0.50075800      2.89267000
H           0.27019300     -1.70137600      0.24165600
H           1.75331400     -2.60866800      0.56224600
H           0.98558300     -1.67039000      1.86851300
H           4.23135700     -1.76960100     -0.68234200
H           5.38726500     -1.55079900      0.65593900
H           3.98113800     -2.61248400      0.86910300
