21
b3lypvdz=-312.087113480643 
C           2.18574000     -0.47588300      0.33003700
C           3.57688800     -0.42188900      0.97772100
C           4.44805600      0.72120700      0.41556700
C           5.51640200     -0.59387600     -1.52770800
C           3.45809800     -0.29459900      2.50164800
C           4.78914700      0.67117400     -1.08087700
O           5.97644200     -0.37277200     -2.85655400
H           1.64728600      0.47850300      0.47438700
H           1.57044600     -1.27022500      0.78358100
H           2.23448300     -0.67005500     -0.75362500
H           4.08771600     -1.38117200      0.76801300
H           3.93889500      1.68056600      0.62689200
H           5.39296300      0.75296300      0.98858100
H           4.83705000     -1.46875400     -1.48238800
H           6.36009200     -0.80546600     -0.83646800
H           2.84500200     -1.10387100      2.93029000
H           4.44633500     -0.32702500      2.98894000
H           2.97932300      0.66084200      2.78323700
H           3.88538200      0.79820600     -1.70114100
H           5.44740600      1.52258700     -1.32581500
H           6.38364800     -1.19246200     -3.17052000
