17
b3lypvdz=-197.619655659552 
C           3.62415700     -0.41694000      0.81680500
C           4.40781800      0.82150300      0.33794400
C           3.62997500      2.10480900      0.66765800
C           4.28985600     -1.77307700      0.54874500
C           4.76408700      0.77269900     -1.15541400
H           2.61867000     -0.40845900      0.35231100
H           3.45901400     -0.31474500      1.90548600
H           5.35681600      0.85165200      0.91014300
H           2.68360500      2.15160400      0.10009400
H           4.21760600      3.00377900      0.41363400
H           3.37870900      2.15836100      1.74112600
H           4.33420200     -2.00426700     -0.52863400
H           5.32090800     -1.79919100      0.94436400
H           3.72783200     -2.58598000      1.03745800
H           5.44601700     -0.05928800     -1.39309900
H           3.85748300      0.65580300     -1.77725500
H           5.26434400      1.70523500     -1.46876500
