23
b3lypvdz=-276.186848562354 
C           1.31790400      0.93720800      0.61655500
C          -0.14973300      0.98803300      0.17605500
C           2.06353400     -0.37301000      0.28597000
C           3.49998400     -0.37804600      0.85379900
C           4.44774200      0.74848800      0.41292500
C           1.32052800     -1.62290500      0.78578900
C           4.78564800      0.75159000     -1.08116400
H           1.85358600      1.77699300      0.14096200
H           1.37770000      1.12018400      1.70728700
H          -0.77306800      0.25915600      0.71789900
H          -0.58150500      1.98538300      0.36345700
H          -0.25697000      0.77694300     -0.90295800
H           2.12379900     -0.44939200     -0.81723900
H           3.43369900     -0.37172300      1.95859300
H           3.96650400     -1.34566300      0.58532700
H           4.02480800      1.72899500      0.69756400
H           5.38268600      0.64996300      0.99217600
H           0.34612600     -1.75426400      0.29036600
H           1.91564100     -2.53103900      0.58970200
H           1.13960700     -1.57506300      1.87496600
H           5.21275000     -0.21787900     -1.39412700
H           3.89677400      0.93775400     -1.70647400
H           5.52595700      1.53109300     -1.32462800
