17
b3lypvdz=-197.618550588891 
C           1.41439900      0.92975900      0.66543900
C           2.18663200     -0.33875300      0.26921500
C           2.07196300      2.26282200      0.28936500
C           3.63517000     -0.41571700      0.77020000
C           4.26007300     -1.79735000      0.55636600
H           0.41109800      0.87881100      0.20580300
H           1.24687300      0.91667700      1.75919700
H           1.63135300     -1.21192000      0.66091000
H           2.18076800     -0.45157500     -0.83320200
H           3.00789500      2.43230000      0.84747000
H           2.31413700      2.31522800     -0.78716700
H           1.39875900      3.10550600      0.52112400
H           4.24807300      0.35045700      0.26192100
H           3.66906500     -0.16244900      1.84766400
H           4.26073000     -2.07633200     -0.51218400
H           5.30185900     -1.83414900      0.91564600
H           3.69555300     -2.57551600      1.09823100
