19
b3lypvdz=-310.900417287428 
C           1.39140600      0.94999400      0.71520700
C           2.08846200     -0.37653400      0.36823600
C           2.16396100      2.16376200      0.19479200
C           3.54802800     -0.39648100      0.85356100
C           4.32918300      0.82879000      0.34963600
C           3.61849300      2.14978500      0.69082800
O           2.10569900      2.10148100     -1.23702000
H           0.37327600      0.96389300      0.29180300
H           1.29134300      1.04578200      1.81194900
H           1.52735400     -1.21839100      0.81004300
H           2.06297200     -0.51381500     -0.72677300
H           1.66312100      3.08891300      0.55055900
H           3.56734700     -0.41409600      1.96125300
H           4.04741900     -1.32175700      0.51617000
H           4.44093100      0.75829800     -0.74677400
H           5.34703000      0.83401700      0.77633800
H           4.16658400      2.99871000      0.24062300
H           3.63015700      2.31369600      1.78508800
H           2.60533200      2.85645200     -1.58052000
