17
b3lypvdz=-197.618275767386 
C           2.09529700     -0.45753400      0.34965000
C           3.52954800     -0.37456900      0.89618500
C           4.31048400      0.85024900      0.36739200
C           3.53332400     -0.44533000      2.43120300
C           3.69514200      2.22847800      0.64902000
H           1.45978800      0.35160700      0.74780300
H           1.62359000     -1.41242200      0.63775500
H           2.07580600     -0.39371200     -0.75244100
H           4.07133100     -1.26627800      0.52630200
H           4.43951900      0.73834800     -0.72540800
H           5.32865100      0.82304300      0.79627000
H           3.06217600     -1.37817500      2.78549100
H           4.56080900     -0.41600000      2.83167400
H           2.97313200      0.39217500      2.88085500
H           2.72204400      2.35405700      0.14638300
H           4.35925500      3.02592200      0.27570100
H           3.54550400      2.40343900      1.72846500
