9
b3lypvdz=-154.948519689677 
C           5.57396700     -0.58829500     -1.39195800
O           5.91813500     -0.56433500     -2.77479700
C           4.71636400     -1.79369200     -1.01709000
H           5.01554500      0.34508500     -1.20842500
H           6.48490100     -0.55233400     -0.75895800
H           6.40090600     -1.38243500     -2.96303600
H           4.41953800     -1.76388700      0.04575100
H           3.80387500     -1.82589800     -1.63425500
H           5.27156900     -2.73530800     -1.18723000
