23
b3lypvdz=-276.18570461788 
C           2.19748000     -0.35786000      0.37330500
C           3.59565700     -0.47325900      1.02419100
C           5.42433000     -0.60254700     -1.54138400
C           3.52379000     -0.43146900      2.55771400
C           1.26550800     -1.56365700      0.54445000
C           4.40494300     -1.70241500      0.56080300
C           4.69362800     -1.81215400     -0.94561100
H           1.70420800      0.53724900      0.79391400
H           2.31383400     -0.15219300     -0.70577400
H           4.15197700      0.42896100      0.70811800
H           4.78209800      0.29281000     -1.57483000
H           5.75830700     -0.80683600     -2.57201800
H           6.31934700     -0.34295700     -0.94915200
H           3.07261500     -1.34748600      2.97663900
H           4.53066200     -0.33430500      2.99635400
H           2.92117900      0.42169600      2.91180900
H           0.28009600     -1.35439100      0.09671000
H           1.66450000     -2.46483000      0.04993100
H           1.09852300     -1.81568700      1.60508600
H           5.37009600     -1.69899200      1.10026600
H           3.88630500     -2.62063700      0.89354700
H           3.75474800     -1.98503600     -1.50251800
H           5.30566900     -2.71690500     -1.11034900
