23
b3lypvdz=-276.185607948736 
C           1.38662400      0.91874000      0.65010400
C           2.11936400     -0.39918900      0.31623400
C           2.12287600      2.21814100      0.29977400
C           3.55935700     -0.49047800      0.89508300
C           3.63439800     -0.33291600      2.42104900
C           1.23120700     -1.59362200      0.70051300
C           4.27535700     -1.78224100      0.46481100
H           0.42340000      0.90245800      0.10962700
H           1.12154900      0.93116500      1.72404200
H           2.23584400     -0.42546500     -0.78603200
H           3.01175200      2.37873600      0.92999800
H           2.45663900      2.22647400     -0.75282900
H           1.45966300      3.08752100      0.44629300
H           4.12743900      0.34745900      0.44945100
H           3.07276000     -1.12557800      2.94256300
H           4.68150200     -0.39819600      2.76137100
H           3.23635100      0.63515000      2.76537400
H           0.24381100     -1.50958400      0.21798000
H           1.66812900     -2.55247300      0.38228100
H           1.06137700     -1.64560800      1.78989200
H           4.19383100     -1.95232700     -0.62255400
H           5.34810000     -1.73797600      0.71823000
H           3.85756900     -2.66599100      0.97554300
