18
b3lypvdz=-272.803055807598 
C           1.39691300      0.91968100      0.70021100
C           2.16041500     -0.34814000      0.29275600
C           2.03798700      2.23281700      0.25757000
C           3.63163800     -0.39503500      0.72529400
C           4.25252200     -1.77757800      0.52102100
O           2.23714100      2.18838600     -1.14903000
H           0.37758900      0.87083100      0.27842900
H           1.28355600      0.95902300      1.79910300
H           1.63104300     -1.22015900      0.71783900
H           2.10731600     -0.45567400     -0.80429100
H           2.99696300      2.38550300      0.79292100
H           1.37248500      3.07176900      0.54866300
H           4.20434200      0.35347000      0.15059700
H           3.72674700     -0.10156500      1.78819800
H           4.18307500     -2.09335300     -0.53441500
H           5.31614700     -1.79643800      0.81039800
H           3.73053700     -2.53853700      1.12494100
H           2.70228400      2.99499900     -1.41150600
