23
b3lypvdz=-276.188362711104 
C          -0.85157700     -0.06859900      0.60224400
C          -2.19066000      0.37230800     -0.02493500
C          -0.39819900     -1.50347000      0.30343900
C          -3.35905900     -0.56459900      0.34868400
C          -4.69657400     -0.24509900     -0.32760700
C           1.03734300     -1.77875100      0.75911100
C          -2.47168400      1.83498000      0.35039800
H          -0.06831700      0.63070600      0.25401900
H          -0.90174100      0.07153600      1.70118900
H          -2.07084200      0.31416200     -1.12652800
H          -0.48497700     -1.69604700     -0.78304300
H          -1.07647400     -2.22442600      0.79181300
H          -3.07876700     -1.59840000      0.08345000
H          -3.48790000     -0.55507500      1.44896600
H          -5.45743800     -1.00170900     -0.07473400
H          -5.09600500      0.73435600     -0.01788900
H          -4.60117800     -0.23165900     -1.42826300
H           1.75556600     -1.11582000      0.24804600
H           1.33815800     -2.81762800      0.54490000
H           1.15399300     -1.61109000      1.84462000
H          -1.61962600      2.48555600      0.09068900
H          -3.35877500      2.23905800     -0.16090300
H          -2.63866600      1.93471000      1.43873500
