18
b3lypvdz=-272.801997052622 
C           1.37303900      0.98688900      0.71219100
C           2.08965600     -0.33208300      0.37819000
C           2.04901400      2.24333900      0.16887200
C           3.52887000     -0.46948100      0.89815400
C           3.65434900     -0.48192100      2.42316700
O           2.21164500      2.09560800     -1.23641900
H           0.35114500      0.94185800      0.29589400
H           1.25890800      1.11237500      1.80393900
H           1.48297800     -1.16429700      0.78009300
H           2.09310900     -0.44521800     -0.71831900
H           3.02557400      2.40241200      0.67211200
H           1.41772500      3.12282900      0.41449200
H           4.15687800      0.33752500      0.47821900
H           3.95532700     -1.40419600      0.49274700
H           3.01624600     -1.26330700      2.87135600
H           4.69088300     -0.68094400      2.74142800
H           3.35155200      0.47797700      2.87476900
H           2.69190000      2.86823400     -1.56538500
