23
b3lypvdz=-276.185914240269 
C           0.00498100      0.99768100      0.33186900
C          -0.95198300     -0.17541100      0.59015600
C          -2.29643100      0.05979400     -0.13775800
C          -0.25303700     -1.49669200      0.23299200
C          -3.56140900     -0.60037600      0.45106400
C          -4.82182900     -0.02886600     -0.21565000
C          -3.58061100     -2.13116100      0.36091500
H           0.95244700      0.87080200      0.87993600
H          -0.44206000      1.95534500      0.64543000
H           0.25256700      1.08192300     -0.74167400
H          -1.16693800     -0.19064000      1.67707300
H          -2.48142400      1.14956000     -0.13153500
H          -2.19477700     -0.22385900     -1.20433800
H           0.70026300     -1.58656800      0.77857000
H          -0.02215000     -1.54246900     -0.84644400
H          -0.85902200     -2.37931300      0.47943100
H          -3.59783100     -0.32325400      1.52366700
H          -5.73299900     -0.46184900      0.22920300
H          -4.88081100      1.06726700     -0.11030600
H          -4.84229300     -0.26361800     -1.29551000
H          -2.79377100     -2.60198800      0.96575400
H          -4.54574400     -2.52885200      0.71655500
H          -3.44403700     -2.46975600     -0.68180100
