18
b3lypvdz=-272.809171327019 
C           1.35614700      0.99125000      0.70115000
C          -0.10103300      0.91996500      0.20825300
C           2.16219200      2.18154600      0.18341800
C          -0.94262000      2.17068400      0.48956300
C           3.61934900      2.14217200      0.64969400
O           2.08253600      2.14823300     -1.24550600
H           1.87545400      0.06354500      0.39700500
H           1.37323000      1.01923600      1.80636300
H          -0.58108000      0.04711900      0.68623300
H          -0.10216200      0.72311600     -0.87677900
H           1.69732000      3.11756800      0.55969400
H          -1.99547000      2.00480700      0.20473600
H          -0.92409700      2.44283600      1.56052900
H          -0.58099300      3.03733100     -0.08768300
H           4.11798600      1.23484900      0.26937300
H           4.17791900      3.01337200      0.26387800
H           3.69537300      2.15277100      1.75032000
H           2.56744800      2.91549800     -1.58194300
