23
b3lypvdz=-276.187053973817 
C           1.26291000      1.09869900      0.82258900
C           2.15736200      2.18486800      0.21792400
C           4.40686900      0.87028500      0.40113000
C           5.56357100     -0.60527900     -1.37284700
C           3.61942600      2.15726200      0.69821300
C           4.70270400      0.63447900     -1.08484600
C           4.83748300     -1.94393900     -1.20138300
H           0.21470700      1.22506800      0.50433600
H           1.57579200      0.08544200      0.51832400
H           1.28140300      1.13007400      1.92683100
H           2.11941500      2.11651400     -0.88476400
H           1.73472700      3.17423500      0.47152100
H           3.86991600      0.00281300      0.82679600
H           5.36779800      0.91450900      0.94520500
H           5.94669200     -0.54096700     -2.40668200
H           6.45659500     -0.58217400     -0.72107500
H           4.15593200      3.00993600      0.24051000
H           3.63666000      2.34126200      1.78841000
H           3.75994400      0.56315700     -1.65772100
H           5.22379900      1.52629000     -1.48160500
H           4.47358300     -2.09761800     -0.17134400
H           3.96229900     -2.01031100     -1.87117800
H           5.50271400     -2.78860600     -1.44694400
