17
b3lypvdz=-197.619200516732 
C          -2.32737300      0.15089200      0.08747500
C          -3.68039200     -0.46678700      0.47506400
C          -4.87220400      0.02036000     -0.35635900
C          -6.19030500     -0.67281700     -0.00218800
C          -2.24932600      1.67205900      0.24830000
H          -1.53862900     -0.31734400      0.70267800
H          -2.09286900     -0.11891800     -0.95955100
H          -3.60738300     -1.56707300      0.37974300
H          -3.87945200     -0.26523300      1.54665500
H          -4.99217100      1.11149100     -0.22616500
H          -4.65175900     -0.14008700     -1.42990300
H          -7.02416500     -0.28413900     -0.60860500
H          -6.13401300     -1.76247500     -0.17367100
H          -6.44907600     -0.51775500      1.06017600
H          -1.23804900      2.04585900      0.01720300
H          -2.94828600      2.19836800     -0.42151500
H          -2.49064800      1.98049800      1.28136200
