17
b3lypvdz=-197.618545643514 
C           1.40629100      0.93195100      0.70352700
C          -0.02989100      1.01893800      0.15766800
C           2.12631200     -0.39320500      0.42674100
C          -0.95127100     -0.14374600      0.55100200
C          -2.40740500      0.06615600      0.12601200
H           1.99392800      1.76323200      0.27434600
H           1.39194400      1.10909200      1.79599500
H          -0.48089100      1.96536200      0.51078900
H          -0.00124000      1.09308100     -0.94722300
H           3.17098900     -0.35850700      0.77743500
H           1.63953000     -1.23673300      0.94288100
H           2.14156200     -0.63188200     -0.65163800
H          -0.57201500     -1.07921900      0.10269400
H          -0.90427500     -0.29555600      1.64654300
H          -3.04780600     -0.77749500      0.43238800
H          -2.82809600      0.98046500      0.57930400
H          -2.49756500      0.17106600     -0.96986200
