17
b3lypvdz=-197.619925879312 
C           3.70140700     -0.41981200      0.89682800
C           4.42964800      0.85683100      0.45455900
C           3.49361900     -0.41555300      2.41669700
C           4.41988000     -1.70933200      0.45077400
C           4.60217300     -1.86777700     -1.06047800
H           2.70250900     -0.41707400      0.41802800
H           3.91163700      1.75322000      0.83416400
H           4.48767400      0.94589900     -0.64199800
H           5.46149900      0.88173800      0.84955100
H           2.95942300     -1.31745500      2.75912300
H           4.46246800     -0.38141100      2.94638100
H           2.90815600      0.46029900      2.74155200
H           5.40623100     -1.76198200      0.95018600
H           3.84417100     -2.57098500      0.83561700
H           5.26556000     -1.09720500     -1.48547700
H           3.63657600     -1.80001800     -1.59121500
H           5.04656900     -2.84688200     -1.30489200
