21
b3lypvdz=-312.084871337328 
C          -0.96653500     -0.33303800      0.74534100
C          -2.27141200      0.09288200      0.02791900
C          -0.25715100     -1.55308600      0.16202900
C          -3.54539300     -0.56475200      0.59793100
C          -3.65236800     -2.08272100      0.48092200
C          -2.42973100      1.61818900      0.08155500
O           0.17586000     -1.21035900     -1.15065100
H          -0.23977400      0.49593700      0.68872500
H          -1.15781500     -0.50982400      1.82012400
H          -2.16138300     -0.20203500     -1.03190600
H           0.60312300     -1.81518100      0.81056400
H          -0.93111200     -2.42924900      0.14752600
H          -4.41281900     -0.11206100      0.08524100
H          -3.64311500     -0.27150800      1.66082900
H          -2.89821100     -2.60872400      1.08653900
H          -4.63958300     -2.43241000      0.82331300
H          -3.52414000     -2.41589500     -0.56289900
H          -1.57839100      2.13305900     -0.39030000
H          -3.34585400      1.94895300     -0.43479500
H          -2.49690300      1.97304600      1.12527200
H           0.59980700     -1.98532400     -1.54548000
