18
b3lypvdz=-272.803829494707 
C           0.04405500      0.99760200      0.23299200
C          -0.95573900     -0.10291500      0.61191000
C          -2.34774400      0.18373200      0.01369800
C          -0.42790500     -1.48560000      0.21286700
C          -3.47562500     -0.72070800      0.51393300
O          -0.36664300     -1.55002600     -1.20988300
H           1.02071500      0.83630700      0.71887100
H          -0.32509100      1.98908800      0.54324100
H           0.20726400      1.01458400     -0.85639100
H          -1.05160900     -0.11771800      1.71603800
H          -2.60627400      1.23446000      0.23867400
H          -2.27227200      0.10086100     -1.08447000
H           0.57478600     -1.63582800      0.66366000
H          -1.08786900     -2.27690200      0.62015700
H          -4.43853400     -0.42220800      0.06804500
H          -3.31096400     -1.77803400      0.24663700
H          -3.58430000     -0.66300000      1.61164800
H           0.00814800     -2.40769600     -1.45302700
