23
b3lypvdz=-276.186755019197 
C           1.33148200      0.98753600      0.58455700
C          -0.15496300      0.88101100      0.22986000
C           2.09657000     -0.32403400      0.35723800
C           3.51951300     -0.35655100      0.94072600
C           4.48928800      0.73762900      0.46301400
C           5.54978600     -0.55890400     -1.49746200
C           4.85819000      0.72749900     -1.03013800
H           1.79293000      1.79856800     -0.00691300
H           1.43198500      1.29132200      1.64405300
H          -0.65725700      0.11440300      0.84385700
H          -0.68300200      1.83475000      0.39665100
H          -0.29802800      0.59828300     -0.82811700
H           1.52397100     -1.14949700      0.81998800
H           2.11580500     -0.54873700     -0.72648100
H           3.44619600     -0.28515500      2.04169700
H           3.96007000     -1.34971900      0.73848800
H           4.06983600      1.72782800      0.71856400
H           5.42098200      0.64547400      1.05142700
H           4.86649400     -1.42386100     -1.48591800
H           5.93363200     -0.45584000     -2.52593600
H           6.40791700     -0.80744100     -0.84881400
H           3.95943400      0.91230800     -1.64717000
H           5.52936700      1.58402600     -1.22277400
