23
b3lypvdz=-276.185540904118 
C           2.17126900     -0.37133000      0.34356300
C           3.61325100     -0.41963500      0.92056200
C           4.34507100      0.85304500      0.45060900
C           3.56852100     -0.39736000      2.46124500
C           1.27750800     -1.59148400      0.58685900
C           4.38306900     -1.69470900      0.48251400
C           4.57386800     -1.91165200     -1.02140800
H           1.68045000      0.52303300      0.76882300
H           2.22793300     -0.18422200     -0.74411200
H           3.85640100      1.75277400      0.86150500
H           4.34380700      0.94767200     -0.64753200
H           5.39449900      0.86172000      0.79113300
H           3.15795800     -1.32969400      2.88202300
H           4.58067800     -0.26573600      2.88032600
H           2.94542100      0.43454500      2.82991800
H           0.26161000     -1.40379100      0.20238200
H           1.65917200     -2.49059200      0.07551500
H           1.18392700     -1.83720300      1.65784900
H           5.37330200     -1.67594300      0.97232500
H           3.86402200     -2.57276000      0.90760700
H           5.17652800     -1.11392200     -1.48573600
H           3.61239400     -1.95571300     -1.55843500
H           5.09884200     -2.86304200     -1.21023500
