23
b3lypvdz=-276.185057623296 
C           1.35464200      0.91899200      0.67652000
C          -0.11644600      1.00924600      0.24328200
C           2.08718700     -0.38706800      0.29018400
C           3.54161700     -0.40822400      0.84315800
C           4.36671800      0.80334200      0.37187000
C           1.29303100     -1.63384700      0.71472000
C           4.28628300     -1.70891000      0.49097400
H           1.89151100      1.77141200      0.23020700
H           1.41639100      1.05677300      1.77393100
H          -0.75626200      0.29449600      0.78464900
H          -0.51562400      2.01755700      0.44633900
H          -0.23203400      0.81494000     -0.83810300
H           2.15954200     -0.40673400     -0.81757000
H           3.47458100     -0.35478900      1.94833700
H           3.96743600      1.75474700      0.75431300
H           4.39078300      0.86359700     -0.73134800
H           5.40818000      0.72765300      0.72698300
H           0.27764600     -1.62816000      0.28985600
H           1.77246700     -2.55848400      0.36144300
H           1.20093000     -1.69815700      1.81438100
H           4.29761800     -1.87848800     -0.60081100
H           5.33302400     -1.66374800      0.83568800
H           3.83148100     -2.59094700      0.96619800
