14
b3lypvdz=-158.335406405088 
C          -0.77242200     -0.17432300      0.63912100
C          -2.52144800      1.65876300      0.30304300
C          -2.10208700      0.22175000     -0.01200500
C          -0.34180900     -1.60597800      0.31251000
H           0.01416400      0.53680200      0.32212200
H          -0.85713100     -0.05422000      1.73647100
H          -1.76934200      2.38623900     -0.04877500
H          -3.47966200      1.92115900     -0.17447100
H          -2.63582900      1.80928200      1.39087800
H          -2.89223200     -0.47688300      0.32428000
H          -2.02756000      0.08157400     -1.10749800
H           0.58079400     -1.88775000      0.84535700
H          -0.15589600     -1.73038000     -0.76879300
H          -1.12164000     -2.33453600      0.59516100
