14
b3lypvdz=-158.333758897702 
C           2.10163200     -0.37568900      0.35330000
C           3.54617300     -0.44422800      0.86706400
C           4.30290800     -1.72375800      0.47367700
C           4.71931600     -1.78220000     -1.00121900
H           1.59000800      0.53284900      0.71265700
H           1.51477900     -1.24149700      0.70988400
H           2.04711700     -0.37244200     -0.74924600
H           4.11527900      0.43257400      0.50109200
H           3.53707000     -0.35946300      1.96915300
H           5.20709400     -1.81547500      1.10159300
H           3.67378000     -2.60097000      0.72301700
H           5.37475000     -0.93098200     -1.26025500
H           3.85062400     -1.74712000     -1.68004700
H           5.28057100     -2.70440000     -1.22816900
