21
b3lypvdz=-312.092973325041 
C           2.12767000     -0.31055700      0.48782300
C          -1.01386100     -0.31659000      0.72633100
C           3.62615000     -0.54690200      0.67991000
C          -0.15947400     -1.51417800      0.29924300
C          -1.28595700     -0.22764300      2.22789900
C           1.28008200     -1.53919500      0.84244300
O          -0.15286200     -1.48662900     -1.13269400
H           1.80466400      0.55064800      1.09921000
H           1.92389000     -0.03695000     -0.56158500
H          -0.53185400      0.60874000      0.36704900
H          -1.96517300     -0.39763800      0.17479400
H           4.21567000      0.35052900      0.42990500
H           3.86426900     -0.82605800      1.72118600
H           3.98517700     -1.36560800      0.03274900
H          -0.66850200     -2.43526700      0.65776600
H          -1.98748400      0.59200300      2.45209500
H          -1.73815900     -1.15687700      2.61668100
H          -0.36674000     -0.03933200      2.80705700
H           1.76550500     -2.44327300      0.42352300
H           1.26731100     -1.69936400      1.93635600
H           0.37477700     -2.23996000     -1.43684000
