23
b3lypvdz=-276.18709016645 
C           2.12728100     -0.42725600      0.26188500
C           3.56119500     -0.43377100      0.82621800
C          -0.21652700     -1.43449500      0.28092900
C           4.27530000      0.87581700      0.46224400
C           1.26613100     -1.65040500      0.59717900
C           4.39581700     -1.68668100      0.47769700
C           4.68041900     -1.93302600     -1.00758500
H           1.62466500      0.47452500      0.66054200
H           2.15115900     -0.28524400     -0.83641100
H           3.46556100     -0.44711600      1.93038400
H          -0.62749300     -0.59015600      0.86052000
H          -0.37111700     -1.20258700     -0.78756200
H          -0.82132400     -2.32441900      0.52169600
H           3.72161700      1.74566500      0.85332200
H           4.35796600      1.00471900     -0.63095800
H           5.29373200      0.91248100      0.88299300
H           1.63846300     -2.53311500      0.04681400
H           1.37798600     -1.89683700      1.67007800
H           5.35483600     -1.61371200      1.02143900
H           3.88790000     -2.57323500      0.89751200
H           5.26088300     -1.11261000     -1.46200200
H           3.75287800     -2.04703800     -1.59295300
H           5.26817300     -2.85670400     -1.14218200
