18
b3lypvdz=-272.803907639638 
C          -0.83757400     -0.12354600      0.56391000
C          -2.20082700      0.28235500     -0.03245700
C          -0.41705500     -1.56713300      0.30827600
C          -3.34382200     -0.66006500      0.36360000
C          -2.53011100      1.73008200      0.35380300
O          -0.41979200     -1.79870000     -1.09558500
H          -0.06271400      0.54326600      0.14454200
H          -0.83654900      0.04479300      1.65842700
H          -2.09212000      0.22468700     -1.13007800
H           0.58712400     -1.73630300      0.74806300
H          -1.10984500     -2.26123500      0.82512200
H          -4.29403100     -0.31579000     -0.07756800
H          -3.17575500     -1.68706500      0.00320500
H          -3.48101200     -0.69878500      1.45947500
H          -1.75044300      2.43324700      0.01736000
H          -3.48555700      2.05788100     -0.08879700
H          -2.61732400      1.83361400      1.45078700
H          -0.12369300     -2.70640400     -1.24988800
