20
b3lypvdz=-236.904329727585 
C           1.36543300      0.77980700      0.80239900
C          -0.02237400      1.02169900      0.19544700
C          -1.07353000     -0.01286000      0.62282600
C          -2.44996900      0.23908300     -0.01102000
C          -3.59747500     -0.63168800      0.52658900
C          -3.38999200     -2.14341400      0.37005700
H           1.75088400     -0.21767000      0.52718700
H           2.09357200      1.52777400      0.44674100
H           1.33785500      0.83721900      1.90496300
H          -0.37441100      2.03179600      0.47752000
H           0.05768500      1.01819400     -0.90797300
H          -0.71507800     -1.02106400      0.34497000
H          -1.16632100     -0.00494600      1.72661100
H          -2.72037300      1.30119300      0.14189200
H          -2.37194600      0.09622100     -1.10678700
H          -4.52639700     -0.34137400      0.00305300
H          -3.76122900     -0.39515300      1.59488800
H          -2.54592900     -2.50758900      0.97849100
H          -4.28675000     -2.69921100      0.69203400
H          -3.18915600     -2.41361600     -0.68198900
