21
b3lypvdz=-312.090187931959 
C           2.05784200     -0.37751300      0.43051400
C           3.51534100     -0.41030900      0.92162300
C          -0.18956700     -1.56569700      0.18418600
C           4.31382200      0.74998800      0.31295300
C           3.60742200     -0.38301000      2.45366200
C           1.22936200     -1.62593000      0.75050300
O          -0.22524500     -1.44234000     -1.23352600
H           1.55748700      0.50979600      0.86674700
H           2.03791500     -0.22456400     -0.66236400
H           3.97057500     -1.35592400      0.56442300
H          -0.70613500     -0.66729200      0.56421100
H          -0.77591800     -2.44189500      0.53006100
H           3.89596300      1.72179700      0.63154500
H           4.29073700      0.72128500     -0.78930300
H           5.36925900      0.72397200      0.63142300
H           3.13956800     -1.26315000      2.92276200
H           4.65666700     -0.34639100      2.79018100
H           3.09955700      0.51095400      2.85938000
H           1.73640200     -2.52330700      0.34033000
H           1.16571900     -1.79089800      1.84153800
H           0.22202800     -2.21997200     -1.60094800
