17
b3lypvdz=-197.619893227733 
C           2.14511200     -0.39904600      0.35192000
C           3.57297800     -0.47499900      0.91655100
C           3.54585400     -0.38632900      2.44996800
C           4.31769500     -1.74485100      0.45955400
C           4.68819100     -1.77204000     -1.03020200
H           1.63186500      0.51406500      0.69844500
H           1.54390600     -1.26306100      0.68843000
H           2.13204200     -0.38780700     -0.75081300
H           4.13940200      0.39892200      0.53765000
H           2.99438600     -1.23729500      2.88748400
H           4.56560900     -0.39641800      2.87049900
H           3.05057200      0.53865100      2.79139000
H           5.24621100     -1.84372500      1.05063700
H           3.70196100     -2.63064000      0.70848400
H           5.30834100     -0.89939900     -1.30138300
H           3.79645200     -1.76487700     -1.67826700
H           5.26902300     -2.67685100     -1.27694900
