23
b3lypvdz=-276.187083667668 
C           1.30975100      0.94179700      0.71944500
C          -0.14030400      0.93368300      0.19877500
C           2.11472600     -0.32390200      0.38229600
C          -1.00760400     -0.22117900      0.71473000
C           3.57195400     -0.36307400      0.90140900
C           4.42682300      0.80166900      0.37674100
C           3.64519000     -0.44961600      2.43388500
H           1.81986600      1.82340400      0.29360900
H           1.29020600      1.09389500      1.81507600
H          -0.61469700      1.89000600      0.48500100
H          -0.13194300      0.91487100     -0.90779700
H           1.59187500     -1.20924500      0.78493600
H           2.12897900     -0.45240100     -0.71729900
H          -2.05534700     -0.09659800      0.39331000
H          -0.66386600     -1.19623600      0.33222100
H          -0.99743300     -0.26853600      1.81821600
H           4.01444200     -1.29571900      0.50282500
H           4.10237900      1.76685200      0.80168100
H           4.37128400      0.88055500     -0.72282000
H           5.48716900      0.66411800      0.64947400
H           3.02740900     -1.27734300      2.82150100
H           4.68210400     -0.62268700      2.76800000
H           3.29623800      0.48068800      2.91368600
