23
b3lypvdz=-276.188313009815 
C           2.12176800     -0.43382600      0.35211700
C          -0.95332600     -0.20307400      0.63134800
C           3.58297300     -0.47892600      0.83874300
C          -0.23015500     -1.52263500      0.32971400
C           4.30539000      0.82114500      0.45903600
C           1.22954700     -1.59225000      0.81607700
C           4.34371000     -1.71479400      0.33770500
H           1.68369100      0.51637600      0.70704700
H           2.11641300     -0.37293400     -0.75597600
H          -0.52091500      0.63931400      0.06656800
H          -2.02069400     -0.26185000      0.35910700
H          -0.89410100      0.05648200      1.70419600
H           3.56183000     -0.52892300      1.94707100
H          -0.26246300     -1.71079300     -0.76097700
H          -0.78797400     -2.35631100      0.79359900
H           3.76991400      1.70363900      0.84936400
H           4.37397900      0.93256600     -0.63878800
H           5.33106200      0.84716500      0.86384700
H           1.65983700     -2.55061200      0.47545800
H           1.24278800     -1.63097800      1.92374800
H           4.33462100     -1.76805700     -0.76725500
H           5.39783300     -1.68814800      0.66294100
H           3.90797300     -2.65147600      0.72001300
