17
b3lypvdz=-197.619835747464 
C           1.39257200      0.96970600      0.72465200
C          -0.05356300      0.93755900      0.20304100
C           2.10797600     -0.35224200      0.38341600
C           2.13348800      2.21100200      0.20248600
C           3.55363600     -0.46886900      0.88657600
H           1.35167800      1.05039600      1.82906200
H          -0.60980400      0.07938900      0.61619400
H          -0.60118300      1.85465100      0.47993300
H          -0.07546800      0.85202100     -0.89889000
H           1.51574400     -1.18442100      0.80729800
H           2.09196600     -0.49492200     -0.71470000
H           3.12669500      2.32315900      0.66728200
H           2.27455900      2.16467300     -0.89259000
H           1.56305800      3.12837200      0.42860300
H           4.22248000      0.25309100      0.39079600
H           3.61661400     -0.29459400      1.97569900
H           3.95725200     -1.47557000      0.68494300
