18
b3lypvdz=-272.808728753273 
C           4.34698200      0.88004800      0.41761700
C           5.50984300     -0.60729300     -1.34594300
C           3.68083700      2.23750100      0.66123500
C           4.67951500      0.64622900     -1.05963800
C           4.74991700     -1.91867400     -1.13988000
O           5.95086300     -0.48666200     -2.70221500
H           3.69044100      0.07621300      0.79794000
H           5.27606400      0.81544100      1.01445200
H           6.38827400     -0.59760900     -0.66490000
H           2.73330900      2.32543700      0.10341600
H           4.33423500      3.06242700      0.32884600
H           3.45539800      2.39718100      1.72840000
H           3.75159500      0.60596800     -1.65929600
H           5.25850300      1.50376200     -1.44542900
H           4.39407600     -2.03204900     -0.10236000
H           3.88045000     -1.97170700     -1.81544300
H           5.40653300     -2.78063200     -1.35591200
H           6.43906600     -1.29298100     -2.92378900
