23
b3lypvdz=-276.185630353373 
C           1.30823700      1.01202600      0.77793600
C           2.03404000     -0.28205300      0.37421300
C           3.49198500     -0.37319100      0.90906700
C          -0.19884200     -1.60695700      0.18240800
C           4.39283200      0.73834100      0.34681000
C           3.59942500     -0.40951500      2.44199400
C           1.23397400     -1.55341300      0.72729700
H           0.35835700      1.11743300      0.23110800
H           1.91240000      1.90215100      0.54053900
H           1.07388700      1.03998700      1.85638300
H           2.12265200     -0.26396000     -0.73086400
H           3.89107900     -1.33300300      0.52694600
H          -0.84514500     -0.84409900      0.64588600
H          -0.22832700     -1.44914300     -0.91059000
H          -0.65781700     -2.58824600      0.38992400
H           4.15167300      1.72022200      0.78977200
H           4.29558000      0.83025000     -0.74846600
H           5.45280400      0.53274300      0.57320100
H           3.06392000     -1.26255200      2.88613500
H           4.65512600     -0.48999600      2.75068000
H           3.19559500      0.50993600      2.89969900
H           1.79579400     -2.42462200      0.34162900
H           1.19907100     -1.67683900      1.82529100
