14
b3lypvdz=-158.333778508802 
C          -3.65008200     -0.61791800      0.48799400
C          -4.80053000     -0.01898300     -0.33636900
C          -6.19887600     -0.52971800      0.03547100
C          -3.49398300     -2.13807200      0.36367200
H          -2.70752800     -0.13485600      0.17178200
H          -3.78949300     -0.35020800      1.55298700
H          -4.77994600      1.08002800     -0.21469800
H          -4.61468900     -0.21489000     -1.41034900
H          -6.97486800      0.00752000     -0.53359600
H          -6.31704300     -1.60450900     -0.18404700
H          -6.40595200     -0.37780900      1.10993800
H          -2.60573000     -2.48909000      0.91465700
H          -4.36385400     -2.67751000      0.77290700
H          -3.37492700     -2.44168300     -0.69144900
