14
b3lypvdz=-158.333761447847 
C          -3.44502600     -0.69075500      0.42697100
C          -0.92658400     -0.14784200      0.69428600
C          -2.27819700      0.23178900      0.06662700
C          -0.42226700     -1.54536500      0.32096700
H          -4.38463500     -0.32987200     -0.02269300
H          -3.29009800     -1.72055100      0.06473700
H          -3.59632800     -0.74297700      1.51963400
H          -0.17617100      0.60353800      0.38891600
H          -0.99973300     -0.06607800      1.79624300
H          -2.52966700      1.26289100      0.37410600
H          -2.16615100      0.26111800     -1.03431900
H           0.55210300     -1.76027900      0.78908600
H          -0.29827700     -1.64660700     -0.77196400
H          -1.11926700     -2.33491000      0.64620200
