12
b3lypvdz=-194.233845572682 
C           1.41830100      0.94990000      0.73360900
O           2.09251400      2.12350900     -1.23646000
C           2.07058600     -0.37121800      0.32088700
C           2.12290300      2.18524300      0.18573600
H           0.37074100      0.97167400      0.38224000
H           1.38856200      1.03517300      1.83525700
H           2.58145600      2.88578700     -1.57678500
H           3.10883600     -0.43878000      0.69153700
H           1.51566400     -1.23195300      0.72711900
H           2.09751700     -0.45941300     -0.77617100
H           3.16747300      2.21715900      0.56380200
H           1.61284800      3.09611700      0.56233000
