23
b3lypvdz=-276.186842368646 
C           1.33068600      0.91341800      0.65011200
C          -0.13307500      0.89695600      0.17347800
C           2.12740300     -0.36379200      0.34455600
C          -1.00007100     -0.22015400      0.76375300
C           3.57097900     -0.37419700      0.88107400
C           4.49891700      0.75727900      0.40984400
C           4.78165200      0.77437900     -1.09492800
H           1.83260300      1.77819300      0.18074000
H           1.35543000      1.10627200      1.74098400
H          -0.58899300      1.87168600      0.42582800
H          -0.15615500      0.83047600     -0.93117100
H           1.60591700     -1.23144700      0.78547200
H           2.12544500     -0.54067100     -0.74806400
H          -2.04850300     -0.12139100      0.43650900
H          -0.65582000     -1.22024600      0.45191100
H          -0.99160600     -0.19675900      1.86830800
H           3.53810000     -0.36041000      1.98645600
H           4.03429900     -1.34083000      0.60459000
H           4.07658100      1.73279600      0.71482000
H           5.45407800      0.66443200      0.95632100
H           5.20594700     -0.18832100     -1.43223500
H           3.86890400      0.95750800     -1.68598500
H           5.50588200      1.56222200     -1.35927400
