15
b3lypvdz=-233.517545558963 
C           3.56421400     -0.46070100      0.93052900
C           5.56962100     -0.55448800     -1.44388200
C           4.29842200     -1.72878300      0.47467200
C           4.70076800     -1.73701600     -1.00917500
O           5.98936600     -0.64217500     -2.79927100
H           2.70411200     -0.23543800      0.27691800
H           4.22485600      0.42209000      0.92329400
H           3.17955800     -0.57201300      1.95776700
H           4.99940800      0.38674800     -1.38071300
H           6.43584900     -0.45007300     -0.75490100
H           5.19910700     -1.87485900      1.10005300
H           3.65768800     -2.60734400      0.66731100
H           3.80035200     -1.76310800     -1.64957800
H           5.25947500     -2.67067400     -1.21985100
H           6.46550400     -1.47986600     -2.90107400
