17
b3lypvdz=-197.621567341368 
C           2.14518200     -0.39492600      0.36061100
C           3.58684900     -0.42323500      0.90206800
C           4.35469600      0.80736000      0.38232500
C           3.55856200     -0.39443100      2.44021600
C           4.28393400     -1.71372700      0.43247200
H           1.61814300      0.52124500      0.67770800
H           1.56417200     -1.25739100      0.72884200
H           2.13108900     -0.42677200     -0.74292300
H           3.87436500      1.74366900      0.71454800
H           4.39223900      0.82194400     -0.72062300
H           5.39336600      0.81685900      0.75460100
H           3.00424100     -1.25741300      2.84572200
H           4.57870300     -0.42470800      2.85971600
H           3.06841800      0.52028700      2.81489200
H           4.31187400     -1.77635500     -0.66897500
H           5.32343700     -1.76242400      0.79950700
H           3.75653000     -2.60778200      0.80679200
