20
b3lypvdz=-236.901744883181 
C           1.99285100     -0.39230500      0.42484200
C           3.43722600     -0.34201200      0.96638000
C           4.27302200      0.79699300      0.34292100
C           3.47329900     -0.32464400      2.50019700
C           1.31197400     -1.75417000      0.59816400
C           3.81280500      2.23131400      0.63106900
H           1.38769000      0.39301900      0.91546300
H           2.00207500     -0.13650700     -0.65087400
H           3.92737900     -1.27816600      0.63084900
H           4.30160500      0.64202000     -0.75103400
H           5.31655500      0.68436200      0.69120300
H           3.01945200     -1.22967100      2.93434800
H           4.50817600     -0.25957200      2.87572200
H           2.91878300      0.53796800      2.90982700
H           0.30635100     -1.76090000      0.14719100
H           1.89694700     -2.55047000      0.10527900
H           1.20241900     -2.03624600      1.65894000
H           2.80042200      2.42911000      0.23883600
H           4.49146700      2.95765200      0.15495600
H           3.80160200      2.45572400      1.71102300
