15
b3lypvdz=-233.519332567046 
C          -0.77498200     -0.16348400      0.59342900
C          -2.14877500      0.21819100      0.02917900
C          -0.34240500     -1.58183100      0.23819100
C          -2.52888500      1.67031200      0.32211100
O          -0.15175600     -1.64754400     -1.17130000
H          -0.00786300      0.53425900      0.21077300
H          -0.77239900     -0.06001200      1.69498100
H          -2.91420000     -0.46019100      0.45115400
H          -2.14230000      0.03585400     -1.05903200
H           0.59003600     -1.83493100      0.78283500
H          -1.11874200     -2.30386900      0.57017100
H          -1.80029800      2.37374000     -0.11553500
H          -3.51845700      1.92384300     -0.09243500
H          -2.55927700      1.86453300      1.40882800
H           0.15900300     -2.53596900     -1.39285000
