21
b3lypvdz=-312.092218078243 
C           1.43528000      0.95315300      0.70387800
C           1.99883800     -0.39650100      0.24201100
C           2.21316400      2.18278600      0.21609600
C          -0.28811600     -1.63086200      0.26251900
C           1.18610900     -1.62370200      0.69180400
C           3.66256800      2.26083900      0.70522100
O           2.15761100      2.14697100     -1.21596200
H           0.40250800      1.06577900      0.33124800
H           1.37989100      0.99144400      1.80837200
H           3.02946000     -0.51577600      0.62364600
H           2.07418400     -0.37962000     -0.85893900
H           1.67530200      3.07952400      0.59405500
H          -0.86573300     -0.82431700      0.74328800
H          -0.39301000     -1.50519300     -0.83018700
H          -0.77420300     -2.58266600      0.53677800
H           1.67924400     -2.52397000      0.28241700
H           1.24663300     -1.72187800      1.79303400
H           4.25875700      1.42770500      0.30057800
H           4.13321700      3.20265300      0.37075300
H           3.72291500      2.23480900      1.80703600
H           2.65278100      2.91012300     -1.54794600
