23
b3lypvdz=-276.188532630171 
C           2.25016900     -0.37980300      0.52591900
C          -0.79468900      0.05745800      0.51383400
C           3.68872700     -0.74378700      0.89566100
C          -2.25706700      0.16721900      0.07016500
C          -0.15825200     -1.30432100      0.20639900
C           1.25227700     -1.51864800      0.78164100
C          -2.82235600      1.57695000      0.24097300
H           1.93495900      0.51160800      1.09720100
H           2.21170200     -0.07793400     -0.53790200
H          -0.21165200      0.85758500      0.02311600
H          -0.72956600      0.26599000      1.60055900
H           4.37685300      0.10414200      0.74148800
H           3.77071400     -1.05081200      1.95364400
H           4.05815900     -1.58479000      0.28453900
H          -2.86864300     -0.55254500      0.64496900
H          -2.34650600     -0.14803100     -0.98713800
H          -0.13290800     -1.43721700     -0.89232000
H          -0.81576700     -2.10875500      0.58591600
H           1.66052500     -2.45441300      0.35696700
H           1.18714200     -1.69060400      1.87306200
H          -2.25812700      2.30836400     -0.36238100
H          -3.87848100      1.63730600     -0.06969500
H          -2.76071300      1.90763700      1.29268200
