20
b3lypvdz=-236.903517390699 
C           2.15873900     -0.44231800      0.33213300
C           3.56443200     -0.40957300      0.95161900
C           4.42153500      0.75236700      0.40947800
C           5.53627300     -0.55963700     -1.52167600
C           3.48036600     -0.34780400      2.48241100
C           4.78957300      0.70907900     -1.08555200
H           1.61345100      0.49592300      0.54538800
H           1.56079400     -1.27032600      0.74836900
H           2.18660500     -0.57142800     -0.76276200
H           4.07026400     -1.35860400      0.69023200
H           3.89118600      1.70216500      0.61841500
H           5.35936600      0.79736000      0.99439800
H           4.88727500     -1.45062500     -1.49836500
H           5.92067400     -0.46197100     -2.55077900
H           6.39991200     -0.76337400     -0.86474200
H           2.87952100     -1.17875300      2.88781100
H           4.48100800     -0.40080100      2.94289600
H           3.00667400      0.59245900      2.81951900
H           3.88456300      0.83638000     -1.70675700
H           5.42198800      1.58848000     -1.30463600
