14
b3lypvdz=-158.333814424604 
C           4.39242800      0.89067900      0.50686000
C           3.61288800     -0.39977800      0.77532400
C           4.37108100     -1.69390400      0.44132300
C           4.61206000     -1.91831400     -1.05241000
H           3.82545400      1.77458300      0.84288700
H           4.61659200      1.03035500     -0.56411600
H           5.35473300      0.89595900      1.04765800
H           2.66414500     -0.38076200      0.20862000
H           3.32667900     -0.42673200      1.84211800
H           5.33698300     -1.69877600      0.97982600
H           3.79943000     -2.54743100      0.84865100
H           5.23356200     -1.12480400     -1.50008300
H           3.65857500     -1.93743300     -1.60843700
H           5.12639100     -2.87554000     -1.23971900
