19
b3lypvdz=-310.900783212285 
C           3.58506200     -0.42823500      0.83011500
C           4.37564600      0.81159000      0.37803700
C           5.54853900     -0.56666400     -1.39207000
C           4.31502500     -1.73931800      0.49470400
C           4.78075400      0.72118700     -1.10234000
C           4.72788700     -1.79742800     -0.98609500
O           5.87718500     -0.56548100     -2.78375000
H           2.59575000     -0.42656300      0.33345200
H           3.39219600     -0.37606500      1.91614700
H           3.77341700      1.72050300      0.54979600
H           5.28374400      0.91716600      1.00221500
H           6.48435200     -0.55485300     -0.79071600
H           5.21695100     -1.83222700      1.12999100
H           3.67145400     -2.60078400      0.74499100
H           3.88071800      0.74701600     -1.74490200
H           5.39736800      1.58776300     -1.39623600
H           3.83193400     -1.85091900     -1.63242900
H           5.31217400     -2.71737000     -1.18259300
H           6.33294300     -1.39781800     -2.97551700
