23
b3lypvdz=-276.187337782543 
C          -1.07928300     -0.38417900      0.76629400
C          -2.29436600      0.25073600      0.05274900
C          -3.62464400     -0.41247000      0.46191200
C          -4.84304900      0.02331000     -0.36013300
C          -6.12628600     -0.72859000      0.00084400
C          -1.06447100     -0.28458600      2.29586000
C          -2.31757700      1.77773900      0.21972800
H          -0.16552600      0.09435300      0.36831300
H          -1.01264500     -1.44795400      0.47415200
H          -2.15458800      0.03898000     -1.02601900
H          -3.51082400     -1.51002200      0.36556500
H          -3.82489300     -0.21729500      1.53318500
H          -5.01267200      1.10687300     -0.22517100
H          -4.62486400     -0.12348300     -1.43566300
H          -6.97812200     -0.37777500     -0.60383300
H          -6.02302700     -1.81479900     -0.16947100
H          -6.38839600     -0.58297000      1.06360300
H          -1.15431800      0.75807400      2.64341100
H          -1.88301400     -0.85884300      2.75891700
H          -0.12039100     -0.68433700      2.70136800
H          -1.34065400      2.21676000     -0.04569100
H          -3.07102800      2.25187200     -0.42741900
H          -2.54576200      2.07500500      1.25800100
