19
b3lypvdz=-347.987537835967 
C           2.15865900      2.19097500      0.21091600
C           4.37380500      0.84571800      0.32469800
C           5.55165400     -0.60233600     -1.41148100
C           3.62678000      2.15413800      0.64383900
C           4.83042400      0.70879000     -1.13307900
O           1.94705800      2.11210700     -1.19647500
O           6.02073400     -0.56382800     -2.75843100
H           1.62928000      1.31680800      0.62896800
H           1.66753200      3.09085200      0.63741900
H           3.72254900     -0.00719500      0.60026200
H           5.26092900      0.77128800      0.98052800
H           4.85143700     -1.44926100     -1.24651400
H           6.39527600     -0.73176600     -0.69971500
H           4.16250600      3.01001100      0.18580200
H           3.65374100      2.33225200      1.73488000
H           3.96725500      0.79979500     -1.81019300
H           5.51893000      1.53767200     -1.38412000
H           2.42186600      2.85372800     -1.60147100
H           6.44198600     -1.41334800     -2.94873200
