23
b3lypvdz=-276.188882065485 
C           1.42683000      0.88947200      0.73148100
C           0.07679200      1.03204800      0.00952300
C           2.05501400     -0.50671300      0.68014400
C          -1.01257900      0.04803300      0.45922100
C          -2.41654800      0.42801300     -0.03384100
C          -3.47017500     -0.65941400      0.21515700
C          -4.89802900     -0.21372900     -0.11330600
H           2.13182600      1.62038900      0.29595300
H           1.29918500      1.18753300      1.78948200
H          -0.28713900      2.06494800      0.16644400
H           0.22927300      0.92326400     -1.08174100
H           3.03288600     -0.51235400      1.18920600
H           1.42263900     -1.25573500      1.18452000
H           2.21540300     -0.84650600     -0.35807800
H          -0.76579000     -0.96952800      0.10573300
H          -1.02458000     -0.00426400      1.56478200
H          -2.73285500      1.36159300      0.46899800
H          -2.38113800      0.66496200     -1.11435600
H          -3.21359700     -1.55347200     -0.38272300
H          -3.42422000     -0.97879300      1.27290100
H          -5.62779900     -1.01480500      0.09224800
H          -5.18993100      0.66294400      0.48976400
H          -4.99926900      0.06841400     -1.17601100
