19
b3lypvdz=-310.891412281726 
C          -2.30739900      0.14368600      0.04590500
C          -3.67337200     -0.46238900      0.40409600
C          -4.85890500      0.13044000     -0.36491400
C          -6.18524500     -0.54550800     -0.02550700
O          -7.40278200      1.11647300     -1.28628300
C          -2.17433500      1.63530500      0.37072800
C          -7.40513000      0.08658300     -0.65172600
H          -1.52494800     -0.41503100      0.58902300
H          -2.10722200     -0.02154600     -1.02942900
H          -3.63707300     -1.55343800      0.22176200
H          -3.84769300     -0.33742700      1.49147900
H          -4.95530900      1.20999100     -0.16077700
H          -4.67878800      0.04187500     -1.45227300
H          -6.18574300     -1.61964100     -0.29911400
H          -6.36819100     -0.53887400      1.06993000
H          -1.16065100      2.00329000      0.14112700
H          -2.87976800      2.25112900     -0.20974600
H          -2.36659700      1.83029500      1.44088700
H          -8.36234800     -0.47471400     -0.46826700
