20
b3lypvdz=-236.901492185254 
C           2.15665100     -0.35311400      0.37229200
C           3.55659500     -0.49445700      0.99714600
C           5.45433600     -0.57979300     -1.49414100
C           1.22630100     -1.55206800      0.59097900
C           4.38016700     -1.71853600      0.55944200
C           4.71982000     -1.80692000     -0.93873000
H           1.68353500      0.54913500      0.80018500
H           2.24407200     -0.15756100     -0.71270200
H           4.13042000      0.42507900      0.78065300
H           3.45371900     -0.52481600      2.09807700
H           4.80422400      0.31016800     -1.52597200
H           5.81281000     -0.76192800     -2.52095800
H           6.33342000     -0.32450400     -0.87665600
H           0.21187800     -1.33678000      0.21593300
H           1.58524200     -2.45295600      0.06564000
H           1.14053100     -1.80709700      1.66217600
H           5.32534500     -1.71768200      1.13338900
H           3.85312300     -2.64239800      0.86005900
H           3.79938200     -1.97940100     -1.52679200
H           5.34502900     -2.70407100     -1.09762100
