23
b3lypvdz=-276.188635184706 
C           1.46465000      0.67236200      0.65914300
C           0.02238200      1.03086500      0.28613900
C          -1.05266200      0.03257000      0.76238100
C          -2.40706000      0.36608600      0.10628100
C          -3.56225700     -0.58597300      0.43321600
C          -4.83017900     -0.28953800     -0.37073300
C          -1.13431100     -0.03543600      2.29264400
H           1.71769300     -0.35184800      0.33284600
H           2.17940000      1.35583100      0.17349800
H           1.64417400      0.72961900      1.74536300
H          -0.22489400      2.03353600      0.68535900
H          -0.04905200      1.11789400     -0.81305700
H          -0.75233600     -0.97065500      0.39505900
H          -2.69729800      1.40028700      0.37947300
H          -2.26185400      0.37251800     -0.99059300
H          -3.24136000     -1.62740400      0.23894200
H          -3.80028100     -0.53350800      1.51048900
H          -5.64917800     -0.97463500     -0.09839000
H          -5.18373600      0.74094700     -0.19034100
H          -4.65586900     -0.39346100     -1.45620300
H          -1.43137000      0.94123600      2.71767700
H          -1.86982100     -0.77984300      2.63375400
H          -0.16598400     -0.31195000      2.73815400
