23
b3lypvdz=-276.18761583975 
C           2.13821800     -0.27239800      0.45169400
C          -0.95435200     -0.04908200      0.50247000
C           3.57372600     -0.47257900      0.96147400
C          -2.43746900     -0.09422000      0.12868000
C          -0.21082200     -1.34376400      0.14240900
C           3.68570200     -0.58720000      2.48454600
C           1.20913300     -1.46526300      0.72033400
H           1.71886000      0.63447100      0.92410700
H           2.16376600     -0.06233700     -0.63379900
H          -0.47407700      0.80580300     -0.00509100
H          -0.85250900      0.14770100      1.58661300
H           4.19692900      0.37258900      0.61833000
H           4.00715400     -1.37408400      0.48937400
H          -2.95364300     -0.91692300      0.65138400
H          -2.95442200      0.84178000      0.39802700
H          -2.57731800     -0.25487300     -0.95451800
H          -0.17700700     -1.44136800     -0.95973000
H          -0.80382700     -2.20607600      0.50028600
H           3.17161600     -1.48025200      2.87554900
H           4.73786100     -0.65009800      2.80614800
H           3.23559200      0.28845500      2.98497300
H           1.67943000     -2.37947100      0.31269900
H           1.13225900     -1.62641100      1.81093700
