23
b3lypvdz=-276.188152860493 
C           1.36229300      0.91851100      0.69673800
C          -0.11590100      0.98624800      0.29140600
C           2.18773400      2.08552800      0.14010700
C          -0.96790500     -0.20656600      0.74976400
C           4.46487300      0.87070200      0.38867300
C          -1.15147200     -0.31890300      2.26777900
C           3.64999600      2.14995700      0.61495600
H           1.78557900     -0.03905700      0.33901700
H           1.44935600      0.89919500      1.80007800
H          -0.56028300      1.92236700      0.68314900
H          -0.17597000      1.06289300     -0.81109200
H           2.16235000      2.04552800     -0.96674000
H           1.69090200      3.03425700      0.41926400
H          -1.96215100     -0.12797900      0.27488700
H          -0.52060100     -1.14103800      0.35960200
H           4.09617400      0.03526500      1.00643900
H           4.42422200      0.54337700     -0.66600400
H           5.52525100      1.02709900      0.64954900
H          -1.56376700      0.61587800      2.68829300
H          -1.85097300     -1.13079300      2.52664700
H          -0.20241700     -0.52569800      2.78967400
H           4.14493700      2.98873800      0.09328800
H           3.67467300      2.40789000      1.69072700
