18
b3lypvdz=-272.804725959846 
C           1.33151500      1.03126000      0.69526600
C          -0.12148600      1.10642400      0.21340300
C           2.20415100      2.16705900      0.17632500
C          -0.95384600     -0.12211500      0.59361200
C          -2.41182100     -0.03673600      0.13382600
O           2.33049500      2.01918600     -1.23502700
H           1.78633400      0.07809600      0.36903300
H           1.36796500      1.03552500      1.80071100
H          -0.59500400      2.01527000      0.63313300
H          -0.12134100      1.23852800     -0.88312100
H           3.19473900      2.13087400      0.67313000
H           1.74284300      3.14315500      0.43961400
H          -0.48168400     -1.02422100      0.16198600
H          -0.91940700     -0.26145800      1.69103600
H          -2.99582900     -0.91157500      0.46419600
H          -2.90756000      0.86126200      0.54146600
H          -2.48389300      0.01866700     -0.96642000
H           2.88222900      2.74269900     -1.56296800
