18
b3lypvdz=-272.802963426108 
C           1.37779900      0.99850300      0.69367000
C           1.97788300     -0.33676400      0.24002400
C           2.17565600      2.20996500      0.22356400
C          -0.25010000     -1.65306200      0.27480900
C           1.22055000     -1.58950300      0.70675800
O           2.20433200      2.19869900     -1.20064000
H           0.34800300      1.10365200      0.30787900
H           1.31073700      1.03819600      1.79748300
H           3.01917900     -0.39874900      0.61033800
H           2.04250700     -0.32280700     -0.86118900
H           3.20235300      2.16742500      0.64588800
H           1.70514300      3.13622300      0.61342600
H          -0.85055900     -0.84768700      0.72869700
H          -0.35382600     -1.56087000     -0.82103400
H          -0.71264000     -2.60812900      0.57497500
H           1.74834800     -2.47515600      0.30924000
H           1.28357600     -1.67124500      1.80877800
H           2.75455800      2.93870700     -1.49296700
