20
b3lypvdz=-236.901674509225 
C           1.37490000      0.98984300      0.74853500
C           2.05079500     -0.33611400      0.35583600
C           3.48828000     -0.43987000      0.91690300
C          -0.22622900     -1.58210500      0.19190900
C           3.61937400     -0.42515200      2.44656000
C           1.21556400     -1.58105900      0.71877900
H           0.46196000      1.16716400      0.15824900
H           2.05159000      1.84221100      0.56355700
H           1.09007900      1.01016600      1.81481400
H           2.14935100     -0.32841200     -0.74747900
H           4.08543000      0.39315300      0.50195800
H           3.95248600     -1.36499100      0.52743200
H          -0.83524400     -0.79427100      0.66345700
H          -0.25929100     -1.42611600     -0.90128100
H          -0.71838400     -2.54584900      0.40682000
H           3.10328800     -1.27747700      2.91712500
H           4.68018900     -0.48432900      2.74141600
H           3.20759700      0.49792100      2.88738500
H           1.74054200     -2.47067400      0.32384600
H           1.18872300     -1.70363800      1.81737800
