23
b3lypvdz=-276.187201343596 
C           1.42493600      0.88467000      0.73630200
C          -0.04425600      0.94649100      0.26758400
C           2.10243400     -0.43938600      0.35402400
C           2.17616900      2.11996400      0.19847300
C          -0.97437000     -0.18829600      0.72489400
C          -1.13377500     -0.31656200      2.24308200
C           3.64348100      2.24816100      0.62523600
H           1.43742600      0.95536500      1.84238200
H          -0.47263800      1.90997000      0.60433700
H          -0.05286100      0.98390900     -0.83932600
H           3.14092700     -0.48452700      0.71895100
H           1.57570900     -1.30266300      0.79082600
H           2.12157700     -0.57869700     -0.74242700
H           2.11456000      2.12111200     -0.90758700
H           1.62707700      3.02071800      0.53048100
H          -1.96695000     -0.01469300      0.27176900
H          -0.62272800     -1.15023500      0.30984100
H          -1.47880800      0.63230100      2.69044100
H          -1.87316800     -1.09215400      2.50213200
H          -0.18647600     -0.59034600      2.73708600
H           4.27028700      1.44378700      0.20728600
H           4.07034100      3.20288400      0.27567900
H           3.75000500      2.21712800      1.72413500
