7
b3lypvdz=-153.749776069858 
O          -7.30425300      1.48599500     -0.61335700
C          -6.18227900     -0.55193600      0.01975400
C          -7.27419800      0.27815700     -0.60660900
H          -5.42318600      0.09490500      0.48306100
H          -5.71515200     -1.19476600     -0.74810900
H          -6.61828000     -1.22925100      0.77569400
H          -8.09755200     -0.31820300     -1.08793400
