21
b3lypvdz=-312.087573989696 
C           1.44007700      0.92259800      0.71985400
C           0.00312100      1.04431900      0.20517300
C          -0.96225000     -0.08833800      0.61153400
C          -2.36126700      0.17761500      0.01638100
C          -0.43545400     -1.47752500      0.23607000
C          -3.48899200     -0.72827900      0.51369200
O          -0.29009400     -1.53524600     -1.18128500
H           1.96917400      0.06853300      0.26753000
H           2.02027000      1.82629300      0.46850400
H           1.47804200      0.80015000      1.81716600
H          -0.43065500      1.99434100      0.56573700
H           0.01857000      1.10721600     -0.89679700
H          -1.04811600     -0.08800700      1.71793100
H          -2.62818100      1.22824200      0.23191200
H          -2.28323800      0.08743800     -1.08153800
H           0.53171900     -1.65871000      0.74488000
H          -1.13570000     -2.25377400      0.60187500
H          -4.44810800     -0.43065000      0.05884200
H          -3.32490600     -1.78614900      0.24898200
H          -3.60803800     -0.66859900      1.61007400
H           0.08742400     -2.39666600     -1.40671800
