17
b3lypvdz=-197.618481960443 
C           2.08992200     -0.31248700      0.45516600
C          -0.99949800     -0.26182500      0.63475300
C           3.57129100     -0.48093100      0.80513900
C          -0.20212700     -1.52344500      0.28510400
C           1.24693100     -1.54679700      0.80265200
H           1.68460300      0.56912700      0.98328500
H           1.98966700     -0.08706700     -0.62413400
H          -0.57819800      0.63390500      0.14926200
H          -2.04692100     -0.34941400      0.30154600
H          -1.00849500     -0.07146100      1.72274900
H           4.15719200      0.41872400      0.55312400
H           3.71127500     -0.67935700      1.88273600
H           4.01753300     -1.32799400      0.25645400
H          -0.19731100     -1.65014400     -0.81427100
H          -0.72840400     -2.40863500      0.68547000
H           1.74700000     -2.44467800      0.39315300
H           1.24744200     -1.67902000      1.90251100
