23
b3lypvdz=-276.187286635156 
C          -1.02319800     -0.29567300      0.76935200
C          -2.32125400      0.13060500      0.06497400
C          -3.61263000     -0.61715700      0.45570600
C          -4.80184700     -0.03220900     -0.33140800
C          -6.18706500     -0.54773900      0.07153600
C          -1.06623700     -0.21770300      2.29744200
C          -3.48226300     -2.13474400      0.26746800
H          -0.21044400      0.35364500      0.39750100
H          -0.74468900     -1.31984300      0.46295200
H          -2.48304500      1.21034400      0.24670400
H          -2.17682700      0.02532200     -1.02809800
H          -3.80640700     -0.42106500      1.52942200
H          -4.78394200      1.06714400     -0.21118000
H          -4.64004700     -0.22327700     -1.41081800
H          -6.97746000     -0.02103300     -0.48671900
H          -6.30752600     -1.62501000     -0.13217600
H          -6.37668700     -0.38704400      1.14763900
H          -1.33760400      0.79510300      2.64446000
H          -1.80180500     -0.91759800      2.72721100
H          -0.08609900     -0.46877500      2.73569500
H          -2.65751900     -2.55366400      0.86535900
H          -4.39765000     -2.66621500      0.57220500
H          -3.28595400     -2.38631400     -0.79092600
