23
b3lypvdz=-276.185942820773 
C           1.44489600      0.93469600      0.64194300
C           2.10995900     -0.42216700      0.35338200
C           3.53945900     -0.50570300      0.95858600
C           3.55625400     -0.46328400      2.49514800
C           1.18887800     -1.58110600      0.76447900
C           4.35190300     -1.71682900      0.45339800
C           4.66851600     -1.71394700     -1.04716700
H           0.51871300      1.04782800      0.05471200
H           2.11280400      1.77248200      0.37707400
H           1.17365100      1.04507900      1.70607100
H           2.23065600     -0.47984700     -0.74396700
H           4.07034400      0.39905600      0.59892100
H           3.07786200     -1.35418300      2.93597900
H           4.59384000     -0.43497700      2.86657500
H           3.03908200      0.42150300      2.89808800
H           0.20548900     -1.48217100      0.27576300
H           1.60007500     -2.56074600      0.47073500
H           1.01385500     -1.60276600      1.85391800
H           5.30418200     -1.74273100      1.01158000
H           3.82727100     -2.65233200      0.72291500
H           5.18346500     -0.78255200     -1.34313200
H           3.76161700     -1.80277800     -1.66720100
H           5.33152800     -2.55302500     -1.31480000
