20
b3lypvdz=-236.904526364395 
C          -1.03711100     -0.33001700      0.75433500
C          -2.30237000      0.21014800      0.07120400
C          -3.61033000     -0.49939000      0.43963600
C          -4.81550200      0.02472500     -0.34821700
C          -6.13915900     -0.65895700      0.00139300
C          -1.04417400     -0.25326400      2.28338800
H          -0.17215900      0.23997100      0.36991700
H          -0.87106100     -1.37751500      0.44046300
H          -2.40379700      1.29044000      0.29495600
H          -2.16260400      0.13769800     -1.02429300
H          -3.50271700     -1.58788400      0.26010800
H          -3.80913200     -0.38258000      1.52207200
H          -4.90829200      1.11416000     -0.17444700
H          -4.61735800     -0.09617100     -1.43073500
H          -6.97406900     -0.23698300     -0.58088400
H          -6.10279700     -1.74248900     -0.20952100
H          -6.38258300     -0.53701300      1.07153300
H          -1.22653600      0.77769200      2.63529900
H          -1.82240400     -0.89401400      2.72874100
H          -0.07734200     -0.58055700      2.70055100
