10
b3lypvdz=-193.036764894248 
O          -7.15259800      1.37380800     -1.06341800
C          -4.77889400      0.01443100     -0.26987300
C          -6.16421300     -0.59485700     -0.07988900
C          -7.29412900      0.27477200     -0.57937600
H          -4.00252500     -0.61751200      0.18733000
H          -4.72676500      1.01459600      0.18770600
H          -4.54471400      0.13448600     -1.33946800
H          -6.25854500     -1.57385700     -0.58941500
H          -6.38092800     -0.81542600      0.98479400
H          -8.31708900     -0.17894000     -0.46299100
