17
b3lypvdz=-197.618879800262 
C           1.42899500      0.91875900      0.71695300
C           2.05998500     -0.42605300      0.33173000
C           2.18472300      2.16346000      0.21899300
C           1.18205300     -1.62787600      0.70175800
C           3.65412600      2.24436200      0.65588200
H           0.39791500      0.95549400      0.31801300
H           1.33455600      0.96752000      1.81941700
H           3.04052500     -0.53320800      0.82826700
H           2.25658800     -0.44057900     -0.75704000
H           2.13238600      2.19919600     -0.88621300
H           1.65174200      3.06238100      0.57839800
H           0.20916200     -1.58677700      0.18276600
H           1.66837900     -2.57781400      0.42293000
H           0.98149300     -1.65848200      1.78699400
H           4.25660000      1.43125900      0.21891100
H           4.10855800      3.19544300      0.33106700
H           3.75201300      2.18301500      1.75457300
