17
b3lypvdz=-197.620725144457 
C           1.34913600      0.96880100      0.70307700
C          -0.10589700      0.96501600      0.21556900
C           2.16599000      2.16527300      0.19773600
C          -0.90976700     -0.23499600      0.72954200
C           3.62992300      2.13914300      0.65723600
H           1.84089300      0.03096500      0.37848000
H           1.36244200      0.95827400      1.81022900
H          -0.60102200      1.90193200      0.53356400
H          -0.11823000      0.96768700     -0.89074400
H           2.12996400      2.18627300     -0.90785800
H           1.68969600      3.10251600      0.54145300
H          -1.94204200     -0.22251500      0.34227800
H          -0.44717300     -1.18704200      0.41574900
H          -0.96395900     -0.23618500      1.83230800
H           4.13710100      1.21928000      0.31761600
H           4.19406500      2.99642900      0.25424300
H           3.70437900      2.17495000      1.75842100
