14
b3lypvdz=-158.333879508478 
C           1.39418700      0.94758200      0.68942400
C          -0.07546100      0.95587600      0.24929500
C          -0.90085600     -0.24096400      0.74663600
C          -1.12475100     -0.28149100      2.26249700
H           1.89181800      0.00615400      0.39365000
H           1.95595600      1.77330200      0.22284700
H           1.50257600      1.05080600      1.78256200
H          -0.55893200      1.89172300      0.58966700
H          -0.11825400      0.97739500     -0.85508100
H          -1.88342600     -0.22169800      0.24210600
H          -0.41153700     -1.17805100      0.41728100
H          -1.58645900      0.65615000      2.62083800
H          -1.79979600     -1.10612000      2.54484500
H          -0.18386500     -0.42126200      2.81983200
