14
b3lypvdz=-158.335211716089 
C          -3.60967900     -0.58144400      0.50340200
C          -2.38608900      1.65094600      0.22608300
C          -2.32045000      0.12761300      0.06973800
C          -3.53635500     -2.10623300      0.36721600
H          -4.45411700     -0.19760400     -0.09829300
H          -3.83444000     -0.31756000      1.55394000
H          -1.44771200      2.13001900     -0.09967500
H          -3.20431700      2.08012700     -0.37667600
H          -2.56233400      1.93573800      1.27803800
H          -1.47311100     -0.26746400      0.66010900
H          -2.10493900     -0.12378800     -0.98577100
H          -2.72370400     -2.52409200      0.98518900
H          -4.47674000     -2.58485800      0.68778500
H          -3.34631500     -2.40400100     -0.67878400
