12
b3lypvdz=-194.233880336129 
O          -0.10182400     -1.43147800     -1.20009300
C          -0.90441900     -0.20159800      0.67776300
C          -2.30432700      0.06913400      0.11952500
C          -0.31722400     -1.52607400      0.20326900
H           0.27237200     -2.26875100     -1.50714700
H          -0.21113400      0.60415500      0.37786100
H          -0.92371100     -0.20519800      1.78294900
H          -3.01503700     -0.71535500      0.43365200
H          -2.69949200      1.03480500      0.47384600
H          -2.28573200      0.07961800     -0.98169400
H           0.62899700     -1.73397100      0.74387100
H          -1.02056900     -2.35048700      0.44959700
