21
b3lypvdz=-312.088355404334 
C           2.16066200      2.31839800      0.18854400
C           3.59616600     -0.44220800      0.76955100
C           4.28561100      0.86123900      0.34657100
C           3.56466000      2.14749700      0.77550900
C           4.41575200     -1.70803300      0.46917600
C           4.66784100     -1.96223200     -1.02020900
O           2.13284100      2.22251700     -1.23242900
H           1.49197100      1.51452100      0.54081900
H           1.71966600      3.27079500      0.54815300
H           2.61305400     -0.52374500      0.27171200
H           3.39282500     -0.40674900      1.85687100
H           4.39692800      0.87529400     -0.74996800
H           5.30699600      0.87870100      0.76971000
H           4.17755000      3.01772700      0.46533800
H           3.49907700      2.21037600      1.87837800
H           5.38255900     -1.65150500      1.00298300
H           3.88761900     -2.57732300      0.90093200
H           5.27475800     -1.16508900     -1.48059500
H           3.71865100     -2.01434400     -1.58079300
H           5.20496500     -2.91200500     -1.17940000
H           2.70454700      2.92416800     -1.57975400
