18
b3lypvdz=-272.807444920463 
C           1.31707700      0.97537700      0.69717800
C           2.15665800      2.15433300      0.21709200
C           4.44031300      0.85346900      0.35146800
C           3.62634800      2.11878300      0.67848100
C           4.77722100      0.66261300     -1.13278900
O           2.03192000      2.16826800     -1.21222800
H           0.26068000      1.12493800      0.42317500
H           1.65410500      0.03857200      0.22579200
H           1.38212300      0.86023300      1.79186300
H           1.70815500      3.08094400      0.63705300
H           3.90265700     -0.03596700      0.72724900
H           5.37906700      0.89610200      0.93136600
H           4.13983500      2.99828800      0.23966400
H           3.63866300      2.28587900      1.77193700
H           5.42476700     -0.21737400     -1.28555800
H           3.86805700      0.53894700     -1.73834900
H           5.31941400      1.54089200     -1.52845300
H           2.55003800      2.91810300     -1.54084200
