21
b3lypvdz=-312.087819850573 
C          -0.93899500     -0.18718700      0.75183200
C          -2.26362500      0.26232900      0.09718700
C          -0.47013000     -1.55355000      0.24094000
C          -3.49478800     -0.59335300      0.41818700
C          -4.74063700     -0.16938800     -0.36345700
C          -0.98163100     -0.19462700      2.28630100
O          -0.43038600     -1.52039700     -1.18097600
H          -0.16936900      0.54227800      0.43762900
H          -2.46237300      1.31064700      0.38900300
H          -2.10706200      0.26067400     -0.99451500
H           0.53086100     -1.77286000      0.66630100
H          -1.15525700     -2.34697000      0.60577500
H          -3.27791200     -1.65226100      0.18845400
H          -3.71560200     -0.54771400      1.50044000
H          -5.60705400     -0.80097100     -0.10785900
H          -5.01411000      0.87801400     -0.14536800
H          -4.57785300     -0.24975800     -1.45264400
H          -1.27227900      0.79167200      2.68490600
H          -1.70427700     -0.93092600      2.67540600
H           0.00376200     -0.45102100      2.71193000
H          -0.09788100     -2.37413000     -1.49027300
