19
b3lypvdz=-310.892870109282 
C          -1.02945800     -0.37616800      0.74954500
C          -2.24870100      0.21952900      0.04104800
C          -3.57522900     -0.45379000      0.41002700
C          -4.78033800      0.15800400     -0.31188200
C          -6.10239000     -0.53711200      0.00402500
O          -7.31496100      1.14842800     -1.22921600
C          -7.32295400      0.11384900     -0.60295200
H          -0.10202300      0.12826400      0.43314400
H          -0.91868800     -1.45078600      0.52078800
H          -1.10517800     -0.27469500      1.84668500
H          -2.31666600      1.29940900      0.27242400
H          -2.10535200      0.14763000     -1.05382900
H          -3.51394200     -1.53464900      0.17422800
H          -3.72670100     -0.38403800      1.50522700
H          -4.86927500      1.22822600     -0.05542500
H          -4.61429600      0.12470800     -1.40393800
H          -6.09792100     -1.59665500     -0.32165900
H          -6.28604100     -0.58349000      1.09759900
H          -8.28378600     -0.44136300     -0.42084000
