18
b3lypvdz=-272.80331621201 
C          -0.89799300     -0.11475000      0.63931000
C          -2.24163900      0.30296500      0.01741600
C          -0.45600700     -1.53657700      0.29881300
C          -3.43093100     -0.59811700      0.36424600
C          -4.74468400     -0.13232800     -0.26906800
O          -0.39909500     -1.65879700     -1.11724200
H          -0.11409900      0.58347500      0.29740800
H          -0.93594600     -0.02660800      1.74221200
H          -2.46451000      1.33880800      0.33285400
H          -2.11910700      0.32389500     -1.07964800
H           0.52986900     -1.73568300      0.76678400
H          -1.16621700     -2.26877300      0.73361900
H          -3.22200900     -1.62756200      0.02432800
H          -3.54925900     -0.65169500      1.46361800
H          -5.57852400     -0.80252100     -0.00369900
H          -5.01531600      0.88466700      0.06418500
H          -4.67390200     -0.11019100     -1.37067100
H          -0.09873000     -2.55281000     -1.33136400
