23
b3lypvdz=-276.184904399897 
C          -1.02434500     -0.32700800      0.78023200
C          -2.29072400      0.19740000      0.05795600
C          -3.59022200     -0.54661200      0.46655900
C          -4.82353200     -0.05306500     -0.30875300
C          -1.06683000     -0.30732300      2.31289800
C          -3.46160900     -2.06955100      0.30485600
C          -2.41054100      1.72348700      0.21529200
H          -0.16894700      0.28418000      0.43968100
H          -0.80309200     -1.35317000      0.44140400
H          -2.13610100     -0.00707700     -1.02091400
H          -3.77312600     -0.33557000      1.53841200
H          -5.71319500     -0.64100300     -0.02805200
H          -5.05201800      1.00429900     -0.10356900
H          -4.68451200     -0.16409000     -1.39988500
H          -1.28452000      0.69856000      2.70936200
H          -1.82976800     -0.99278000      2.71628600
H          -0.09661100     -0.62371000      2.73084300
H          -2.66514500     -2.49600100      0.93280900
H          -4.40135200     -2.57294500      0.58701300
H          -3.24150000     -2.34005500     -0.74364400
H          -1.45741600      2.21588300     -0.04165200
H          -3.18036200      2.15087500     -0.44409700
H          -2.66583300      2.01097600      1.25006300
