13
b3lypvdz=-232.322069518383 
C          -3.63366900     -0.63321100      0.47227500
C          -4.76969300      0.09670300     -0.24629200
C          -6.14339500     -0.52269600     -0.00017200
O          -7.17895500      1.23865900     -1.28579000
C          -7.29102300      0.21759900     -0.64686500
H          -2.66164400     -0.16599400      0.24546900
H          -3.57341700     -1.69131800      0.16211500
H          -3.76511400     -0.61384000      1.56865200
H          -4.79833900      1.15490100      0.06498900
H          -4.57756700      0.11071100     -1.33313700
H          -6.18886200     -1.57156400     -0.35766500
H          -6.37513400     -0.58807500      1.08284400
H          -8.29908800     -0.25507600     -0.48812200
