23
b3lypvdz=-276.182511192595 
C          -0.94642600     -0.26247300      0.85218200
C          -2.24132000      0.09403100      0.07776800
C          -0.25316500     -1.55621600      0.36505500
C          -3.55930000     -0.60890100      0.44829200
C          -1.15204500     -0.27355700      2.37578100
C          -3.58050400     -2.13217000      0.28466800
C           1.26852800     -1.53433400      0.56493500
H          -0.24506500      0.56311100      0.62082400
H          -2.40899800      1.18152000      0.19559100
H          -2.04989800     -0.06118200     -1.00219400
H          -0.46195800     -1.70289100     -0.70946800
H          -0.67495300     -2.43359400      0.88619500
H          -4.34952700     -0.17508800     -0.19106600
H          -3.84407300     -0.34805300      1.48355000
H          -1.51122900      0.70194700      2.74545500
H          -1.88708600     -1.03783600      2.67841500
H          -0.21053300     -0.50111300      2.90241000
H          -2.90285700     -2.63193400      0.99406800
H          -4.59177100     -2.53248800      0.47027800
H          -3.28349700     -2.43269200     -0.73491600
H           1.73000700     -0.71591600     -0.01339500
H           1.73132100     -2.47695500      0.22796600
H           1.54255100     -1.39071600      1.62390700
