17
b3lypvdz=-197.618536043898 
C           2.18852500     -0.45759600      0.46885200
C          -0.90818300     -0.07779100      0.58581800
C          -2.38379900     -0.00483600      0.18347200
C          -0.22214900     -1.36521100      0.10837300
C           1.19211400     -1.60503800      0.66363300
H           1.89971600      0.43963200      1.04098300
H           3.19491700     -0.75219500      0.80983900
H           2.27011400     -0.15711800     -0.59057100
H          -0.37184900      0.79926100      0.18150000
H          -0.82441600     -0.00185200      1.68708800
H          -2.95028200     -0.86038300      0.58998400
H          -2.86447700      0.91322300      0.55918000
H          -2.50669500     -0.02342800     -0.91373700
H          -0.19400800     -1.36667000     -0.99863300
H          -0.85284000     -2.22927000      0.39197700
H           1.59882400     -2.51652600      0.19042500
H           1.12008800     -1.83390000      1.74351500
