17
b3lypvdz=-197.619184281009 
C          -2.34032000      0.14076000      0.22849700
C          -3.70113400     -0.52881200      0.46772800
C          -4.81457400     -0.09789600     -0.48939400
C          -0.89132500      2.23303700      0.33568900
C          -2.29856000      1.65242900      0.48800000
H          -1.59268900     -0.34484000      0.88238700
H          -2.00739900     -0.06140900     -0.80838700
H          -3.56871500     -1.62300200      0.38869200
H          -4.02178500     -0.33599100      1.50932400
H          -5.74266000     -0.65820900     -0.28875000
H          -5.05165800      0.97482500     -0.39402600
H          -4.53445500     -0.28545600     -1.54146700
H          -0.50742900      2.08138500     -0.68845100
H          -0.18105300      1.74437400      1.02387000
H          -0.86771100      3.31537300      0.54540000
H          -2.98761300      2.17652600     -0.19784400
H          -2.67572000      1.85790400      1.50803300
