20
b3lypvdz=-236.902108698785 
C           2.14524000     -0.39665200      0.36319200
C           3.57494700     -0.48399500      0.94857800
C           3.57257000     -0.38651000      2.48073000
C           1.23018400     -1.59833600      0.62847300
C           4.36850300     -1.72389100      0.48885300
C           4.62860300     -1.80999300     -1.01683600
H           1.66979800      0.51167100      0.77571700
H           2.20569100     -0.23019900     -0.72676400
H           4.11554000      0.40396100      0.56403600
H           3.14116600     -1.28726500      2.95061600
H           4.59724300     -0.27514500      2.87209100
H           2.98359400      0.47729100      2.83188600
H           0.21894000     -1.40841200      0.23286900
H           1.60390800     -2.51469500      0.14212600
H           1.12734900     -1.81597400      1.70496400
H           5.33608400     -1.72910200      1.02114200
H           3.84331700     -2.63645400      0.82825100
H           5.15501600     -0.91191400     -1.38541800
H           3.69447300     -1.90426700     -1.59458100
H           5.25833300     -2.68052000     -1.26402400
