20
b3lypvdz=-236.904821936304 
C           1.28868700      0.84973600      0.72973000
C          -0.14964400      0.88330800      0.17806700
C           2.08454800     -0.43155400      0.45550000
C          -1.00899700     -0.29934600      0.64600600
C           3.56346300     -0.30341200      0.83261000
C          -0.80956200      2.22556300      0.52050200
H           1.83691100      1.70619500      0.29312300
H           1.26466100      1.03735300      1.82243500
H          -0.07999300      0.81720900     -0.92612800
H           1.63509000     -1.27609100      1.00702500
H           2.00076000     -0.69222500     -0.61692600
H          -2.03575000     -0.21820300      0.25124600
H          -0.60224100     -1.26216600      0.29824200
H          -1.07591500     -0.34223800      1.74823700
H           4.04880200      0.51244500      0.27058700
H           3.68735500     -0.07920600      1.90699500
H           4.12179900     -1.22965100      0.61717500
H          -1.81194200      2.31165700      0.06960600
H          -0.92121500      2.34111100      1.61374400
H          -0.20401800      3.07311500      0.15772300
