14
b3lypvdz=-158.335293329752 
C          -3.66474600     -0.57746200      0.35633700
C          -2.31714000      1.59770900      0.42306100
C          -2.28495800      0.07464700      0.25705500
C          -0.93702700      2.24996300      0.33129300
H          -4.36266200     -0.15289800     -0.38535400
H          -3.61722100     -1.66512600      0.18102100
H          -4.11477600     -0.41966600      1.35247400
H          -2.98317100      2.03085800     -0.34717200
H          -2.78942100      1.84824700      1.39235500
H          -1.60883100     -0.35843700      1.01787900
H          -1.82763700     -0.17408400     -0.71997000
H          -0.46452300      2.05211700     -0.64718700
H          -0.25282300      1.85780700      1.10329100
H          -0.99156600      3.34392400      0.45811700
