20
b3lypvdz=-236.90282849987 
C           1.41995900      0.96029000      0.74310000
C           2.07034800     -0.36301600      0.30943600
C           3.50956700     -0.44232000      0.86127900
C          -0.23876000     -1.55829900      0.24015600
C           1.22816400     -1.59812300      0.69323200
C           4.29559800     -1.70535000      0.48459800
H           0.46424300      1.13988300      0.22634200
H           2.08178200      1.81259900      0.51226400
H           1.22563700      0.97376200      1.83104000
H           2.14242000     -0.34817200     -0.79768000
H           4.06449400      0.44249700      0.49919400
H           3.47822100     -0.35017500      1.96481800
H          -0.81319000     -0.77730200      0.76308000
H          -0.32015100     -1.36819000     -0.84501400
H          -0.73575300     -2.52109600      0.44814000
H           1.69904500     -2.49434200      0.25490300
H           1.26568400     -1.73753800      1.79148300
H           4.30363600     -1.86281500     -0.60844700
H           5.34325600     -1.62641800      0.81995200
H           3.87250100     -2.60857400      0.95222400
