18
b3lypvdz=-310.605552976477 
     C      5.25613600      0.38204100      0.09362200
     C      4.91135700     -0.80305100     -0.44426700
     C      3.56498600     -1.28756300     -0.74965500
     C      2.38990700     -0.63763700     -0.54492000
     C      1.09960700     -1.19022300     -0.87593700
     C     -0.08876500     -0.56434500     -0.66565000
     C     -1.37694800     -1.13778600     -1.00273800
     C     -2.56679400     -0.54414700     -0.78583300
     H      3.51748600     -2.28815200     -1.19433800
     H      1.09481700     -2.18946800     -1.32890900
     H     -1.35760100     -2.13059800     -1.46837900
     H      4.51698200      1.13818300      0.37225900
     H      6.30403600      0.63062400      0.27608800
     H      5.71737500     -1.50229000     -0.69411100
     H      2.39220700      0.36407000     -0.09994800
     H     -0.09308200      0.43345900     -0.20992700
     H     -2.63705300      0.44564100     -0.32437400
     H     -3.50275300     -1.03236000     -1.06628200
