18
b3lypvdz=-310.602456422193 
     C      2.45321300      0.45770200      0.16959700
     C      3.69248600      0.91262700      0.50618300
     C      4.96302500      0.30988900      0.17548500
     C      6.15506900      0.86146600      0.52036700
     C      7.49035900      0.33261100      0.23806700
     C      7.80219200     -0.80527100     -0.41068900
     C      2.13680000     -0.72151700     -0.61584300
     C      0.88068100     -1.09813800     -0.92398500
     H      3.74749100      1.83894500      1.08916600
     H      6.13322100      1.81055400      1.06807900
     H      8.31549000      0.94984800      0.61052200
     H      8.84378900     -1.09799000     -0.56153100
     H      0.68308600     -1.99149000     -1.52052700
     H      1.59191500      1.03969300      0.51609500
     H      4.95136800     -0.63588700     -0.37536500
     H      7.04101300     -1.47979700     -0.81211400
     H      2.96882100     -1.32974800     -0.98580600
     H      0.01358400     -0.52579600     -0.57900200
