14
b3lypvdz=-233.238452010025 
     C      3.78348200      1.19019600      0.51982600
     C      4.87070800      0.46327100      0.16221600
     C      6.19551800      0.89750900      0.63247200
     C      7.38451500      0.32842000      0.37021400
     C      4.76951900     -0.73135700     -0.70879700
     C      3.67508600     -1.49231800     -0.86365800
     H      3.86999900      2.05245600      1.18238300
     H      6.15781700      1.79975700      1.25290100
     H      8.30556300      0.75779800      0.76685700
     H      3.65402600     -2.34791600     -1.53961800
     H      2.79931200      0.93391800      0.12818200
     H      7.47844000     -0.57293500     -0.23680000
     H      5.68486700     -0.97723200     -1.25087700
     H      2.76454800     -1.29397000     -0.29710100
