14
b3lypvdz=-233.247987464576 
     C      5.03806700      0.50799300      0.25873000
     C      6.25515600      0.96427400      0.60864200
     C      4.82708100     -0.72355900     -0.48491200
     C      3.63854600     -1.25885100     -0.86543700
     C      2.31296800     -0.71618600     -0.61721300
     C      1.17624800     -1.31485400     -1.01932000
     H      6.37086000      1.89556800      1.16813600
     H      3.66463100     -2.20567900     -1.41640800
     H      1.18727100     -2.26538100     -1.56216900
     H      4.15873700      1.09033700      0.55350900
     H      7.16949500      0.42592300      0.33929300
     H      5.73620300     -1.27059300     -0.76012300
     H      2.23858400      0.23162800     -0.07423400
     H      0.20045100     -0.86981900     -0.80979300
