14
b3lypvdz=-233.24797649202 
     C      2.57529300      0.58315800      0.21917800
     C      3.79273700      1.03698100      0.57248800
     C      2.36296800     -0.62809500     -0.55594300
     C      1.17308800     -1.15885900     -0.93746900
     C     -0.14939200     -0.62396900     -0.65963500
     C     -1.29366400     -1.21465900     -1.05275800
     H      3.91681700      1.95160900      1.15632000
     H      1.18506100     -2.09178400     -1.51192700
     H     -1.29504500     -2.15584900     -1.61176700
     H      1.69482700      1.15072700      0.53684500
     H      4.70642500      0.50984900      0.27918400
     H      3.27500500     -1.15864000     -0.85201400
     H     -0.21089800      0.31455300     -0.09933100
     H     -2.26622100     -0.77492200     -0.82027200
