18
b3lypvdz=-310.611502564017 
     C      3.65942500     -1.31443500     -0.92098100
     C      2.49130500     -0.72581500     -0.59727500
     C      1.18410700     -1.23561500     -0.96815900
     C      0.01222000     -0.62982200     -0.64260100
     C     -1.29299200     -1.13202400     -1.00926000
     C     -2.46487100     -0.52626600     -0.68360700
     C     -3.77208700     -1.03611200     -1.05438000
     C     -4.94019800     -0.44761600     -0.73041700
     H      3.69530100     -2.24252000     -1.50012200
     H      1.16397700     -2.16761300     -1.54635200
     H     -1.31731200     -2.06415900     -1.58710200
     H     -3.79032000     -1.96496000     -1.63715200
     H     -5.89447100     -0.87970100     -1.04115900
     H      4.61369100     -0.88242300     -0.61011900
     H      2.50955500      0.20309400     -0.01459700
     H      0.03652900      0.30234500     -0.06481600
     H     -2.44470300      0.40573100     -0.10541000
     H     -4.97605600      0.48041100     -0.15119000
