14
b3lypvdz=-233.239616014378 
     C      0.15493000      0.47199400      0.38366900
     C      1.16301800      1.35489100      0.40517000
     C      1.14150700     -1.40473900     -0.89310300
     C      0.05217200     -0.68880100     -0.53362000
     C     -1.27345600     -1.08859800     -1.03506800
     C     -2.43572000     -0.44898800     -0.82828100
     H      1.18493100      2.16967200      1.13246800
     H      1.05509100     -2.24633700     -1.58546500
     H     -1.27989500     -2.00767600     -1.63193400
     H     -0.67231800      0.60413300      1.09040600
     H      1.98867600      1.29924000     -0.30959900
     H      2.13043000     -1.17695100     -0.49151800
     H     -2.50042500      0.47916100     -0.25493000
     H     -3.36624100     -0.84030300     -1.24499300
