18
b3lypvdz=-310.594708750095 
     C      5.07113100      0.79952200     -0.00584600
     C      7.26935800     -1.30323500     -0.30372100
     C      6.11425500     -1.22326200     -0.97751300
     C      4.93360600     -0.40507200     -0.60503900
     C      3.63025100     -0.98784600     -0.97125500
     C      2.40913700     -0.63552400     -0.50822000
     C      1.18062700     -1.28350000     -0.93359500
     C     -0.04864600     -0.96979200     -0.48545900
     H      8.09210200     -1.92338800     -0.66818000
     H      5.99402200     -1.82910700     -1.88439700
     H      3.67590500     -1.82348300     -1.68048500
     H      1.29193000     -2.08454500     -1.67542100
     H      4.20762800      1.41604900      0.25197100
     H      6.05886300      1.20563800      0.21850100
     H      7.42912800     -0.76350300      0.63444600
     H      2.31272800      0.16530000      0.23527600
     H     -0.20112000     -0.17543000      0.25213500
     H     -0.93640200     -1.49401900     -0.84509800
