6
b3lypvdz=-78.533013970126 
     C     -4.86961400      0.79269900      0.04345800
     C     -3.70798600      1.32540000      0.42614100
     H     -5.82406600      1.26357900      0.30009000
     H     -3.66867600      2.25397700      1.00481200
     H     -4.90892400     -0.13587800     -0.53521100
     H     -2.75353300      0.85452200      0.16951000
