18
b3lypvdz=-310.594720295394 
     C      0.15881800      0.96682100     -0.09805700
     C      2.34376500     -1.14832700     -0.34821700
     C      1.19995900     -1.06834600     -1.04165000
     C      0.02014400     -0.24088900     -0.69106700
     C     -1.28394800     -0.81424600     -1.07020800
     C     -2.50538100     -0.44898100     -0.61798100
     C     -3.73647100     -1.08364700     -1.05422900
     C     -4.96639500     -0.75698100     -0.61755800
     H      1.09222400     -1.68035700     -1.94575300
     H     -1.23938000     -1.65137400     -1.77741200
     H     -3.62688100     -1.88551400     -1.79521700
     H     -5.85536700     -1.27242500     -0.98641800
     H     -0.70415500      1.59019600      0.14385600
     H      1.14627000      1.36700900      0.13708100
     H      2.49042700     -0.60304800      0.58855500
     H      3.16883600     -1.77453800     -0.69663200
     H     -2.59985300      0.35274400      0.12445100
     H     -5.11821200      0.03840400      0.11875500
