18
b3lypvdz=-310.608377520314 
     C      5.09328000      0.50657000      0.26143900
     C      6.32490100      0.93293200      0.60126500
     C      4.84441500     -0.69816300     -0.51009200
     C      3.63379700     -1.20470300     -0.87385900
     C      2.33270600     -0.64478900     -0.58769000
     C      1.16372600     -1.23110700     -0.95632800
     C     -0.14830300     -0.67798300     -0.68187400
     C     -1.31282100     -1.25396500     -1.03737300
     H      6.47231200      1.84376200      1.18569500
     H      3.62983000     -2.14089800     -1.44308600
     H      1.19411000     -2.18611900     -1.49553800
     H     -1.33946100     -2.20991800     -1.56949100
     H      4.22888900      1.09227800      0.59180300
     H      7.22176200      0.38484200      0.29506400
     H      5.73665100     -1.25317900     -0.82083200
     H      2.28768800      0.30624100     -0.04600700
     H     -0.17043600      0.27912500     -0.14680700
     H     -2.27134800     -0.78652400     -0.80108800
