14
b3lypvdz=-233.23543089195 
     C     -2.42386100      1.01674000     -0.20268200
     C     -0.08293000     -0.93272500     -0.40779700
     C     -1.23391800     -0.96547100     -1.09335100
     C     -2.46413300     -0.20823400     -0.76723300
     C     -3.74130200     -0.86156400     -1.13758300
     C     -4.90561400     -0.74011400     -0.48522900
     H     -1.30569600     -1.62584000     -1.96657500
     H     -3.69686800     -1.52091400     -2.01335600
     H     -5.80439000     -1.25064200     -0.83982400
     H     -3.33895400      1.57450600      0.00620500
     H     -1.47424000      1.49735500      0.04130000
     H      0.03268500     -0.33129700      0.49853800
     H      0.78214300     -1.51653900     -0.73192300
     H     -4.99832200     -0.13866100      0.42360800
