18
b3lypvdz=-310.599344421569 
     C      5.09711000      0.40866200      0.24943000
     C      6.42507800      0.91039000      0.60754000
     C      7.62359100      0.38183900      0.29501600
     C      4.81803000     -0.70401800     -0.47661200
     C      3.50370800     -1.20973900     -0.84300900
     C      2.29032100     -0.65418800     -0.58542100
     C      1.03639700     -1.25536000     -0.99347600
     C     -0.18340900     -0.73765300     -0.74798600
     H      6.41935600      1.83196600      1.20053700
     H      8.54628600      0.86129500      0.62912900
     H      3.50961000     -2.15678200     -1.39497300
     H      1.11019000     -2.20498600     -1.53804300
     H      4.26292000      1.01136300      0.62421100
     H      7.72956500     -0.53662200     -0.28974900
     H      5.65541700     -1.30950200     -0.84022700
     H      2.22365000      0.29721100     -0.04451100
     H     -0.30526500      0.20728100     -0.20943000
     H     -1.09215400     -1.24215600     -1.08332900
