14
b3lypvdz=-233.245101107154 
     C      7.62157600      0.32685200      0.28481900
     C      7.34422400     -0.78521400     -0.42039200
     C      6.02428600     -1.29665400     -0.80042700
     C      4.81869400     -0.74258400     -0.52817000
     C      3.55636000     -1.33043500     -0.94004500
     C      2.34729100     -0.80202800     -0.66994700
     H      8.65483600      0.60261700      0.50916700
     H      8.18722200     -1.39729300     -0.76064900
     H      6.03904600     -2.23628700     -1.36480000
     H      3.61133200     -2.26926100     -1.50416500
     H      6.84242800      0.99335400      0.66511300
     H      4.75861800      0.19760700      0.03246400
     H      2.24010000      0.13256400     -0.11080700
     H      1.42978800     -1.29083600     -1.00616100
