12
b3lypvdz=-232.108702343338 
     C      4.94825300      0.41398500      0.21741500
     C      6.17293200      0.96292200      0.61108700
     C      7.36896800      0.32742800      0.26170700
     C      7.33983400     -0.85787100     -0.48115300
     C      6.11515000     -1.40680400     -0.87481500
     C      4.91911400     -0.77131500     -0.52544800
     H      6.19585600      1.89124300      1.18728500
     H      8.32487500      0.75744500      0.57194500
     H      8.27328100     -1.35512300     -0.75714700
     H      6.09222500     -2.33513700     -1.45099800
     H      4.01480900      0.91124600      0.49340600
     H      3.96320300     -1.20132100     -0.83568400
