10
b3lypvdz=-155.891263333121 
     C     -1.28551400     -1.13942000     -1.01669100
     C     -2.44258400     -0.53879200     -0.68777100
     C     -3.76115500     -1.04216200     -1.05539600
     C     -4.91823000     -0.44156700     -0.72642800
     H     -1.26501100     -2.06939700     -1.59419400
     H     -3.78886700     -1.97181000     -1.63667100
     H     -5.87995000     -0.86234400     -1.03076300
     H     -0.32378200     -0.71867300     -0.71235800
     H     -2.41482100      0.39087500     -0.10653000
     H     -4.93878600      0.48839100     -0.14889500
