10
b3lypvdz=-155.88504795284 
     C      7.49786800      0.36742600      0.28456700
     C      7.31969800     -0.76315400     -0.41739000
     C      6.04136300     -1.35338800     -0.85229800
     C      4.80430500     -0.89713900     -0.59963400
     H      8.49959300      0.70705100      0.55810500
     H      8.21080000     -1.32794400     -0.71438100
     H      6.13545700     -2.27280700     -1.44112700
     H      6.66139700      0.99145900      0.61272400
     H      4.62057600      0.01037700     -0.01662800
     H      3.92674200     -1.42578200     -0.97833800
