14
b3lypvdz=-233.239606663683 
     C      5.07595800      0.30020300      0.47547400
     C      6.06850900      1.20087900      0.47932600
     C      6.08683000     -1.57239900     -0.78908200
     C      4.98863600     -0.86573700     -0.43796600
     C      3.66848500     -1.27819600     -0.94310100
     C      2.49610300     -0.66155000     -0.72315400
     H      6.08617800      2.02365300      1.19862700
     H      6.01053700     -2.41778800     -1.47856300
     H      3.67704400     -2.18933200     -1.55243100
     H      4.25432300      0.41510100      1.19190000
     H      6.88584400      1.15213200     -0.24637100
     H      7.07039700     -1.33190900     -0.38213300
     H      2.41656800      0.25810100     -0.13806100
     H      1.56998700     -1.06305600     -1.14106500
