18
b3lypvdz=-310.599396435146 
     C     -2.68412100      0.75678800      0.09241000
     C     -1.46438700      1.20081600      0.45014200
     C     -0.16210800      0.61298900      0.13088600
     C      5.05324600     -0.95017700     -0.59789100
     C      3.81244000     -1.35481300     -0.93300900
     C      2.59020000     -0.66115400     -0.57783900
     C      1.35216200     -1.11358700     -0.90748800
     C      0.06413300     -0.51714400     -0.58645100
     H     -1.41589900      2.11580300      1.05135100
     H      3.69360000     -2.27993400     -1.51113000
     H      1.29914900     -2.04748000     -1.47893700
     H     -3.58335000      1.29517000      0.39947000
     H     -2.83175200     -0.14755300     -0.50519500
     H      0.69829700      1.16145200      0.52912700
     H      5.22030400     -0.03383200     -0.02328900
     H      5.93579800     -1.52197000     -0.89260400
     H      2.70353300      0.26924400     -0.00858200
     H     -0.80004400     -1.06541700     -0.97717100
