14
b3lypvdz=-307.506444040964 
O          -0.59697700      1.47169700      0.53149700
O           0.01421600     -1.99386300      0.74243400
C           0.34013800      0.40817000      0.66775500
C           1.49984900      0.70645300     -0.29301100
C          -0.29543700     -0.92078000      0.28045100
C           2.75603100     -0.12039400     -0.01693000
H          -1.30654100      1.33407300      1.17679400
H           0.72789100      0.32212100      1.70191100
H           1.71207100      1.78503500     -0.19461300
H           1.14819100      0.55237100     -1.33088200
H          -1.07890800     -0.81662400     -0.52120600
H           2.54508800     -1.20241200     -0.03358000
H           3.53293100      0.08717900     -0.76999700
H           3.17695700      0.12287400      0.97347500
