13
b3lypvdz=-344.396800666575 
O          -0.75878600      1.37732600      0.27333100
O           0.35758900     -1.98734800      0.54668900
C           0.32646600      0.46247100      0.60102900
C           1.54096700      0.74848400     -0.26145900
C          -0.26521400     -0.95104100      0.40416000
C          -1.65671400     -0.71702300      0.01628900
C          -1.83370700      0.62471600     -0.03462100
H           0.55612800      0.61744800      1.66943000
H           1.91983600      1.76614500     -0.08278400
H           2.32839400      0.02196500     -0.00825200
H           1.29600800      0.63851800     -1.33020800
H          -2.38603600     -1.49054900     -0.21142100
H          -2.72273100      1.20258900     -0.29458300
