12
b3lypvdz=-343.40733659455 
O          -0.70530200      1.42421600      0.32800500
O           1.97339800      2.05308700     -0.01579800
O           0.37670000     -1.97078100      0.62834000
C           0.28378600      0.44396800      0.63165100
C           1.49008200      0.75299000     -0.26624400
C          -0.24269500     -0.96307200      0.37711000
H          -1.27847700      1.54021700      1.09879900
H           1.20372800      2.63886300     -0.10803900
H           0.62436900      0.51584900      1.68221300
H           2.29449400      0.03615100     -0.04476400
H           1.18838300      0.61276200     -1.32541900
H          -1.25736600     -0.97755100     -0.10235200
