14
b3lypvdz=-307.510129240322 
O           2.83326400     -1.46585500     -0.49808800
O           0.09242500     -1.91827900     -0.15540900
C           0.31199500      0.40763800      0.52767900
C           1.58158800      0.66882700     -0.29458200
C          -0.36396400     -0.93403600      0.39178900
C           2.81987900     -0.17087700      0.05658900
H           1.92958500     -1.82514300     -0.42610400
H          -0.46234400      1.16644800      0.30241900
H           0.50483200      0.53586000      1.61411500
H           1.83981000      1.73378700     -0.15430500
H           1.36294600      0.53197100     -1.36894900
H          -1.37749000     -0.98861200      0.86583200
H           3.71001800      0.34387900     -0.34441700
H           2.93975500     -0.19060700      1.16493200
