11
b3lypvdz=-268.219257345882 
O           2.06470200      2.05460200      0.08397200
O           0.22749200     -1.75861000     -0.38577600
C           0.24597900      0.46969700      0.53529400
C           1.58214700      0.74035600     -0.15823400
C          -0.27927800     -0.93332700      0.34000100
H           1.44746500      2.67564000     -0.33075300
H          -0.54122300      1.15814200      0.16343600
H           0.31533800      0.67632100      1.62000000
H           2.34846600      0.05714600      0.23960600
H           1.49668400      0.51981300     -1.23930200
H          -1.20707100     -1.17427900      0.92555600
