10
b3lypvdz=-193.036671463178 
C          -0.26598700     -0.93824900      0.36893700
O           0.26561400     -1.82216500     -0.26244100
C           0.26350500      0.47098300      0.50060500
C           1.60366200      0.70779100     -0.18840400
H          -1.22455000     -1.12628100      0.92538500
H          -0.52404800      1.14344400      0.10579900
H           0.29883600      0.70168200      1.58388600
H           1.99732000      1.70922100      0.04645800
H           2.34856800     -0.03900700      0.12749300
H           1.50757900      0.62248100     -1.28261600
