12
b3lypvdz=-194.234013303104 
C           2.76298200     -0.15372700     -0.08727300
O           2.48809900     -1.45123200     -0.60440500
C           0.32597500      0.37829700      0.52056600
C           1.58916600      0.82292300     -0.21853100
H           3.61956000      0.22148200     -0.67068400
H           3.09406100     -0.20510400      0.97178500
H           1.85776700     -1.87776500     -0.00698600
H          -0.50608400      1.08146100      0.35648700
H          -0.01539200     -0.60808200      0.16040600
H           0.49198300      0.30458200      1.61033900
H           1.92050300      1.80794200      0.15870000
H           1.36167900      0.95282300     -1.29180500
