9
b3lypvdz=-267.008551222518 
O           0.02455700     -2.25307400      0.51722100
O          -2.52339300     -1.59555100     -0.16976300
C          -0.27632100     -1.08586100      0.41808700
C          -1.63394200     -0.59714600      0.04717700
C          -1.86493300      0.72627800     -0.04012300
H          -3.36904700     -1.20496300     -0.44057700
H           0.45861000     -0.26075200      0.60133500
H          -1.06054200      1.43565400      0.16021800
H          -2.84218800      1.13451600     -0.31167500
