14
b3lypvdz=-344.609575964046 
O          -0.29609500      1.88878200     -0.40197100
O           2.28952600      1.89248800      0.36932000
O           1.90010100     -1.66369200     -0.03836500
C           0.23126400      0.65713200      0.10166800
C           1.73094800      0.71049300     -0.17995000
C           2.48770200     -0.45849000      0.43379000
H          -1.18916000      2.00716700     -0.05156200
H           1.64642000      2.58980400      0.15521400
H           2.37773500     -2.40302600      0.36227200
H          -0.22015400     -0.21808100     -0.39661200
H           0.06222300      0.56746100      1.19334900
H           1.86901400      0.68578400     -1.28174000
H           3.55365700     -0.37252200      0.14360500
H           2.43601800     -0.36869900      1.53838300
