11
b3lypvdz=-119.049776592403 
C           2.76175700     -0.15952800     -0.03771500
C           0.34600000      0.41298800      0.57527500
C           1.57160600      0.77664500     -0.26838300
H           2.50168600     -1.20379600     -0.28575900
H           3.62426000      0.12849000     -0.66152700
H           3.08803100     -0.13625500      1.01693300
H          -0.49453800      1.09901600      0.37785000
H           0.00079500     -0.61205700      0.35211300
H           0.57533100      0.46296200      1.65468600
H           1.87629300      1.81543300     -0.04293200
H           1.29417700      0.75790300     -1.33864100
