15
b3lypvdz=-382.69862546842 
O          -0.64174700      1.42389000      0.42483100
O           1.89991400      2.09301400     -0.05354800
O           0.18164300     -2.02718800      0.57948400
C           0.32816600      0.39377300      0.63488200
C           1.53679100      0.74002100     -0.27136100
C          -0.27706400     -0.95417200      0.26439900
C           2.74957400     -0.13195800      0.01341600
H          -1.17645600      1.51550300      1.22539000
H           1.06303000      2.58783600     -0.05983100
H           0.67971300      0.36829800      1.68289800
H           1.21137700      0.58875200     -1.32465000
H          -1.20422100     -0.85553000     -0.36231800
H           2.50559400     -1.20084300     -0.07656000
H           3.55792100      0.11239700     -0.69179800
H           3.11806400      0.06130800      1.03446600
