9
b3lypvdz=-154.948520125884 
C           2.75183600     -0.16175600     -0.02541700
O           2.61597700     -1.39946300     -0.71795900
C           1.57056500      0.77195700     -0.26559900
H           3.67861800      0.29348200     -0.41224800
H           2.89916500     -0.32725400      1.06329600
H           1.82358200     -1.83366200     -0.36950600
H           1.71397100      1.74368400      0.23664500
H           0.63540700      0.32636700      0.12102700
H           1.43608000      0.94794500     -1.34574000
