7
b3lypvdz=-153.749784746776 
C          -0.29315500     -0.97040700      0.39027600
O           0.25992600     -2.03047000      0.56685900
C           0.34855300      0.38106200      0.57726900
H          -1.36729200     -0.93443200      0.06082100
H           0.26451300      0.96597900     -0.35632700
H           1.40401300      0.27326000      0.86658200
H          -0.19925700      0.94600800      1.35191800
