5
b3lypvdz=-40.480437518723 
C           0.34419700      0.41085900      0.57726400
H          -0.44062400      1.13485400      0.31437600
H           1.23005400      0.58655600     -0.05048900
H          -0.02972000     -0.61063500      0.40837200
H           0.61659300      0.53186500      1.63687800
