9
b3lypvdz=-154.947833612033 
O           2.00076600      2.10295800      0.08183000
C           2.75917200     -0.15208400     -0.03463600
C           1.58344600      0.77938900     -0.25874700
H           1.24792800      2.69083700     -0.07210100
H           2.48919900     -1.18998300     -0.29258800
H           3.61704700      0.15375400     -0.65562000
H           3.08099300     -0.12238200      1.01990300
H           0.72567300      0.46112500      0.37006900
H           1.25927600      0.72578400     -1.31990900
