8
b3lypvdz=-228.916570914248 
O          -0.72433500      1.44815100      0.24476000
C          -1.67328100     -0.77160800      0.04302600
C          -1.74746300      0.56481800     -0.00497600
O          -2.69637700     -1.65496700     -0.20674900
H           0.07030300      0.94239200      0.47524500
H          -0.75087400     -1.30178800      0.30175800
H          -2.66985400      1.09502800     -0.26369800
H          -3.49101900     -1.14922700     -0.43726600
