11
b3lypvdz=-380.28756438561 
O          -0.71372600      1.36588600      0.26802000
O           0.25770200     -2.05063700      0.57129700
O          -2.58747500     -1.70324100     -0.17646900
C           0.32443800      0.40891000      0.56216200
C          -0.30229900     -0.98351800      0.41220800
C          -1.69652700     -0.70113300      0.04273800
C          -1.83769900      0.64774700     -0.01152100
H          -3.43117700     -1.32096300     -0.46180100
H           1.15651500      0.56118100     -0.14220500
H           0.68539300      0.57853300      1.58904500
H          -2.71644500      1.25013400     -0.24757400
