8
b3lypvdz=-228.929998165066 
O          -0.71487300      1.42433100      0.38844500
C          -0.30615000     -0.98033900      0.38043800
O           0.14280600     -1.97103700      0.90420700
C           0.26877800      0.41924600      0.54727800
H          -1.26747200      1.42869200      1.18324300
H          -1.20760100     -1.00715100     -0.29223600
H           1.00647500      0.56843400     -0.26366900
H           0.82343700      0.47282400      1.50369300
