10
b3lypvdz=-342.204035454381 
O           0.02257300     -2.29017600      0.50851800
O          -2.55972200     -1.49844300     -0.18927300
O          -3.00296000      1.23026900     -0.33625700
C          -0.25812100     -1.11261200      0.41492800
C          -1.58011100     -0.58866200      0.05702800
C          -1.76540300      0.74964500     -0.01013000
H          -3.36239000     -1.00452100     -0.42545000
H          -2.99165600      2.19631000     -0.35464100
H           0.49965000     -0.30650700      0.60516000
H          -0.96026000      1.45869700      0.19181600
