7
b3lypvdz=-153.728603841462 
C          -1.68525800     -0.69038400      0.02998800
C          -1.77525200      0.64081200     -0.00651800
O          -2.94721800      1.27995800     -0.31047700
H          -2.55551000     -1.31359100     -0.19197800
H          -0.74349200     -1.17668700      0.28552400
H          -0.92005600      1.29581100      0.20958500
H          -2.79271500      2.23298000     -0.29722400
