9
b3lypvdz=-267.013833688707 
O           0.13439700     -2.20291400      0.47023200
O          -3.04235100      1.21792100     -0.31935200
C          -0.20887600     -1.03751300      0.39384800
C          -1.54995200     -0.57796500      0.04637500
C          -1.81996500      0.74128300     -0.00840000
H          -3.02980400      2.18538800     -0.30881000
H           0.52483800     -0.20880200      0.60120000
H          -2.31958200     -1.32412600     -0.16752600
H          -1.04040500      1.48402900      0.20793200
