15
b3lypvdz=-382.696420703541 
O           2.02649700      2.04095000     -0.02499400
O           2.84030200     -1.41236200     -0.63076600
O           0.14329500     -1.92593100     -0.06600900
C           0.30513400      0.43777800      0.49610800
C           1.60115500      0.70214500     -0.28815400
C          -0.33289800     -0.92578500      0.43454000
C           2.79549200     -0.19889300      0.08098600
H           1.32206900      2.64529900     -0.30173700
H           1.98150800     -1.85170700     -0.49364600
H          -0.48009400      1.15857800      0.18896500
H           0.47203300      0.66145800      1.57041400
H           1.41303000      0.54679400     -1.36951300
H          -1.33802700     -0.98224100      0.92504800
H           3.70036000      0.36797800     -0.18956100
H           2.82174300     -0.34986100      1.18352100
