11
b3lypvdz=-285.199217802428 
O           2.45224400      1.07279800      0.02953200
N          -1.83695600     -1.21516900     -0.00926500
C           0.28078400      0.11943300      0.00326000
C          -0.43779600     -1.02433500     -0.00536400
C          -2.63049500     -0.21516900     -0.01178800
C           1.74974300      0.08101200      0.00784900
H          -0.15906900      1.12138900      0.00840100
H           0.11041400     -1.97441300     -0.00930600
H          -2.32133900      0.84759000     -0.01319600
H          -3.71142800     -0.41312800     -0.01320200
H           2.19549700     -0.94920800      0.01407700
