9
b3lypvdz=-267.042060697927 
O           2.31073400     -1.09035800     -0.00049800
O           2.28050800      1.16331700     -0.00322600
C           0.19958200      0.00662200      0.00052100
C          -0.47073500     -1.15104700      0.00172300
C           1.67722000      0.11032500      0.00020100
H           3.26129600     -0.87687300     -0.00230200
H          -0.31693900      0.96994900     -0.00025600
H          -1.56481200     -1.16835600      0.00207500
H           0.05214500     -2.11037900      0.00246200
