12
b3lypvdz=-360.426963921188 
O           2.32391600     -1.12313400      0.01401100
O           2.40815200      1.13093800     -0.00227200
N          -1.85282900     -1.21042500     -0.00436500
C           0.27767300      0.08413400     -0.00330400
C          -0.44678100     -1.05315800     -0.00187200
C          -2.62718600     -0.19638600     -0.00404400
C           1.75267200      0.10867800     -0.00081100
H           3.28491600     -0.96416000      0.01727200
H          -0.16745900      1.08104000     -0.00747900
H           0.08730800     -2.00708900      0.00077900
H          -2.30032900      0.86110200     -0.00137800
H          -3.71155400     -0.37463900     -0.00653700
