12
b3lypvdz=-360.436032462105 
O           2.22869100     -1.06041700      0.01253800
O           2.31422000      1.18773400     -0.00760000
N          -1.78799600     -1.44612500      0.00522700
C           0.15823200      0.11527100     -0.00364000
C          -0.47768500      1.29855700     -0.00630300
C          -0.53347300     -1.21165000      0.00051200
C           1.65923700      0.16911300     -0.00599500
H           3.19131100     -0.90546500      0.01565900
H          -2.32491800     -0.56388100      0.00662000
H          -1.56912700      1.37436900     -0.00575000
H           0.09798200      2.22553900     -0.00949100
H           0.13592700     -2.08274500     -0.00117600
