13
b3lypvdz=-344.393522493231 
O           2.31867300     -1.07045000     -0.00653000
O           2.18966100      1.17259700     -0.00582900
C           0.13969100     -0.07726800     -0.00133600
C          -0.62475000      1.18796900      0.00172500
C          -0.38246700     -1.31872600      0.00155100
C          -1.95865800      1.31517400      0.00544800
C           1.62808900      0.09753000     -0.00838300
H           3.25740600     -0.80928400     -0.00648000
H          -0.00344400      2.08677500      0.00046200
H          -1.46241100     -1.48800000      0.00648300
H           0.26287800     -2.19630600     -0.00084200
H          -2.63906700      0.45748600      0.00653400
H          -2.42080000      2.30520300      0.00739900
