8
b3lypvdz=-191.813595972171 
C           1.66541800      0.10551900      0.00148000
O           2.29794400      1.14049300     -0.00330900
C           0.19053000      0.03551300      0.00101100
C          -0.45529600     -1.13858600      0.00125700
H           2.17981400     -0.89354700     -0.00202300
H          -0.33538800      0.99601300      0.00053600
H          -1.54693900     -1.19909200      0.00106100
H           0.09551700     -2.08561300      0.00178700
