9
b3lypvdz=-267.042790754873 
O           2.26164900     -1.06964300      0.00047300
O           2.34398900      1.18601000      0.01165100
C           0.21042000      0.07899000     -0.00363700
C          -0.52781400      1.19274000     -0.00245100
C           1.69336500      0.16317600     -0.00087400
H           3.22445700     -0.91745600      0.00747000
H          -0.23370600     -0.91954900     -0.00735400
H          -1.62016600      1.15532100     -0.00518500
H          -0.04159400      2.17191100      0.00060700
