13
b3lypvdz=-361.423874075025 
O           2.33468600      1.13875500      0.00304800
N          -1.81006000     -1.27772400     -0.00176000
C           0.20689300      0.06267600     -0.00009400
C          -0.54930000      1.24511400      0.00088400
C          -0.47635900     -1.16262300     -0.00144800
C          -1.93608200      1.14329600      0.00057300
C          -2.51241800     -0.13598900     -0.00070300
C           1.68913900      0.11109300      0.00049900
H          -0.03540200      2.20891400      0.00190100
H           0.08700400     -2.10486400     -0.00232800
H          -2.56856700      2.03362400      0.00134900
H          -3.60281800     -0.25148300     -0.00086000
H           2.19478500     -0.88929200     -0.00016100
