5
b3lypvdz=-94.574610589605 
N          -1.78445400     -1.28241500      0.00000200
C          -0.51916700     -1.16592500     -0.00000200
H          -2.22255500     -0.34856000     -0.00009900
H           0.04103200     -0.21055700     -0.00009900
H           0.09574400     -2.08144300      0.00009900
