11
b3lypvdz=-248.144969743064 
N          -1.82275800     -1.27704200     -0.00029300
C           0.20696300      0.03748100      0.00025400
C          -0.53211400      1.22240300      0.00020500
C          -0.48470000     -1.17746100     -0.00000200
C          -1.92621700      1.13919200     -0.00010600
C          -2.51580100     -0.12862100     -0.00034200
H           1.30014900      0.05356000      0.00050100
H          -0.02939400      2.19344800      0.00041400
H           0.06109600     -2.12835800      0.00003700
H          -2.54630200      2.03873500     -0.00016700
H          -3.60722100     -0.23743700     -0.00060200
