32
b3lypvdz=-1295.004318360932 
Cl         -0.79350300      4.60115100      0.81510100
N           2.27739900     -0.36489700     -0.35454300
N          -0.02444600     -1.64287700      1.11777600
N           3.18898500     -2.34601000      0.03307900
N           3.79315200     -1.80014900     -1.08745700
C           1.50695200      0.80037500     -0.12721800
C           0.17243200      0.70169900      0.33500500
C          -0.53360900     -0.61230400      0.54141300
C           2.29850400     -1.48474300      0.45741700
C           1.35288200     -1.59760900      1.60608100
C          -1.94641900     -0.74674600      0.05658500
C           2.09146900      2.05668700     -0.34746100
C          -0.51777100      1.89707900      0.61067700
C           3.25006100     -0.62847800     -1.29888200
C           1.38685100      3.22834500     -0.08761200
C           0.08692800      3.13634600      0.41688600
C          -2.46154400      0.02258900     -1.00259100
C          -2.76819900     -1.73307100      0.63506600
C          -3.76024500     -0.19483100     -1.47388000
C          -4.06314100     -1.94502800      0.16703700
C          -4.56323400     -1.18021700     -0.89443700
H           1.57383600     -2.52737400      2.14502200
H           1.50559200     -0.74929200      2.30315800
H           3.11977200      2.11183600     -0.70683200
H          -1.54010600      1.85299300      0.98381800
H           3.49147300      0.04786700     -2.11542100
H           1.84790100      4.20235300     -0.25505800
H          -1.84208000      0.78096900     -1.48386600
H          -2.35924400     -2.33291900      1.44833600
H          -4.14045200      0.40477000     -2.30444900
H          -4.68808800     -2.71172400      0.63108600
H          -5.57371000     -1.35769200     -1.27073700
