13
b3lypvdz=-344.36434291868 
O           1.16596300     -0.91668800     -0.68971700
O           1.90103100     -0.22947300      1.37081600
C          -0.19127000     -0.84726900     -0.36434100
C          -0.82372800      0.29779000     -0.08356700
C          -2.25866300      0.44409200      0.19713700
C          -3.19121800     -0.52169400      0.22416400
C           2.10403400     -0.60047300      0.25015500
H          -0.67165700     -1.82596000     -0.43169800
H          -0.22815100      1.21443300     -0.05413100
H          -2.57921900      1.46994900      0.40717900
H          -2.95645300     -1.57353000      0.03480300
H          -4.23338000     -0.28059600      0.44524000
H           3.10131100     -0.75198300     -0.21134000
