12
b3lypvdz=-269.162055124689 
O           1.11588400      1.79425900     -0.46658000
C          -0.10681900     -0.74798100     -0.34205100
C          -0.80888700      0.38439400     -0.13682400
C          -2.24928000      0.47709600      0.16153700
C          -3.13600400     -0.52680800      0.21818300
C          -0.06419900      1.68414400     -0.21701200
H           0.96077800     -0.68242000     -0.56321900
H          -0.56272500     -1.74015400     -0.30386200
H          -2.61585700      1.49322900      0.35556100
H          -2.85715500     -1.56902500      0.03498200
H          -4.18439800     -0.33004600      0.45444400
H          -0.69443700      2.59231200     -0.02136000
