12
b3lypvdz=-306.319097113049 
O           1.16587400     -0.18148200     -0.32436100
O           1.83802200     -1.70323100      1.22898000
C          -0.14341000     -0.25349800      0.12374100
C          -1.10944500      0.40442500     -0.51339000
C           2.10175100     -0.95502400      0.32121900
C           3.46554300     -0.72105100     -0.27086900
H          -0.27915400     -0.87290100      1.01132900
H          -2.13161100      0.34855900     -0.13655500
H          -0.90403800      0.99964400     -1.40581700
H           3.46108400     -0.98301300     -1.34093300
H           4.20316300     -1.32989400      0.26374400
H           3.72722300      0.34626700     -0.19328800
