14
b3lypvdz=-345.389112685068 
O           1.15636100      1.75067500     -0.39547100
C          -0.25834700     -0.76126400     -0.33901600
C          -0.85787200      0.49045900     -0.12091900
C          -1.02940000     -1.92086100     -0.29659000
C          -2.23390900      0.56829500      0.14167000
C          -2.40467900     -1.83878400     -0.03464200
C          -3.00699000     -0.59453600      0.18332700
C          -0.03710500      1.72527700     -0.17309400
H           0.81240600     -0.79863700     -0.54942000
H          -0.56229900     -2.89253900     -0.47435300
H          -2.69795100      1.54306600      0.32125300
H          -3.00890500     -2.74876300      0.00007300
H          -4.07751500     -0.53371200      0.39365300
H          -0.60829600      2.67262300      0.01563000
