9
b3lypvdz=-267.021251947354 
O           1.13972700     -1.42745800     -0.15821300
O           1.81932200      0.56436700      0.73705800
C          -0.20309400     -1.11350000      0.00609300
C          -1.13679200     -1.95996900     -0.41948100
C           2.05723600     -0.50617300      0.24751200
H          -0.38551100     -0.15560800      0.49550600
H          -2.18921300     -1.70976800     -0.27874900
H          -0.86994500     -2.90222900     -0.90296400
H           3.06357000     -0.92206200      0.04293900
