9
b3lypvdz=-267.042693187384 
O          -0.74185400      2.80193200      0.18727300
O           1.15761700      1.78675100     -0.48931600
C          -0.27846700     -0.71930100     -0.32870600
C          -0.82843800      0.47799500     -0.10397500
C          -0.00992900      1.71577800     -0.16994100
H          -0.13952400      3.56499900      0.11376200
H           0.78414900     -0.79878900     -0.57303200
H          -0.87003500     -1.63616300     -0.27792900
H          -1.88512000      0.59749700      0.14726400
