13
b3lypvdz=-344.367160071442 
O           1.07542300     -0.87621900     -0.52011400
O           1.11687000      1.74579700     -0.39195200
C          -0.26925900     -0.86792300     -0.33180700
C          -0.91382200      0.46758800     -0.13571500
C          -0.94515800     -2.03284100     -0.32136100
C          -2.22728300      0.68086900      0.09496700
C          -0.08783700      1.70041100     -0.18949300
H           1.39738000      0.04988600     -0.50231300
H          -2.02258500     -2.08369400     -0.16761700
H          -0.39795200     -2.96460700     -0.46983000
H          -2.95747700     -0.12817000      0.16077600
H          -2.60483100      1.69862600      0.23230300
H          -0.66276900      2.64447800     -0.02914500
