10
b3lypvdz=-155.885142497912 
C          -2.29811400     -1.83104200     -0.05659000
C          -2.92375300     -0.51741800      0.16560100
C          -1.00548900     -2.08456500     -0.31550300
C          -2.32200500      0.68294200      0.17783800
H          -2.98393200     -2.68438600      0.00141400
H          -4.00435700     -0.54746400      0.34812400
H          -0.25420800     -1.29302800     -0.39410400
H          -0.65673000     -3.10913400     -0.46511900
H          -1.24739700      0.80692500      0.01168200
H          -2.90021700      1.59217000      0.35865700
