7
b3lypvdz=-153.728679512785 
     O      1.08957900     -0.90152000     -0.66712000
     C     -0.23707300     -0.82922400     -0.34654700
     C     -1.02148400     -1.90826600     -0.29031500
     H     -0.62400500     -2.90365400     -0.50133600
     H      1.46296100     -0.01100700     -0.64869000
     H     -0.62922300      0.17291200     -0.13066100
     H     -2.07355400     -1.80044200     -0.02573000
