10
b3lypvdz=-342.259733952531 
O           1.04346000     -0.84912600     -0.67786500
O          -0.71525800      2.81433800      0.16169500
O           1.15299800      1.72245800     -0.46595000
C          -0.23120400     -0.71051500     -0.34941600
C          -0.84133500      0.48019600     -0.08618200
C          -0.04609500      1.68804000     -0.15449900
H           1.41757200      0.08116700     -0.68469900
H          -0.07466300      3.54379000      0.07455600
H          -0.77422200     -1.66108300     -0.30488000
H          -1.89365400      0.53323600      0.18544000
