11
b3lypvdz=-380.289389500057 
O           1.04760200     -1.02272400     -0.60287500
O           1.16857100      1.85375100     -0.26292500
O           1.84514200     -0.40783000      1.45634800
C          -0.26572800     -0.75020600     -0.32960100
C          -0.78062200      0.47094100     -0.09216900
C          -0.03395600      1.74236800     -0.10921400
C           2.03131600     -0.69080500      0.31409600
H          -0.90079000     -1.63981100     -0.38651000
H          -1.86093700      0.52786000      0.06564800
H          -0.68042200      2.64890700      0.00484400
H           3.00142500     -0.79795100     -0.20524200
