14
b3lypvdz=-419.609042210349 
O           1.15318900     -0.79980500     -0.70173700
O          -0.72133800      2.78234200      0.15527500
O           1.15784500      1.73101300     -0.46874500
C          -0.12865000     -0.72670000     -0.40047800
C          -0.82541100      0.43002800     -0.13222000
C          -2.26393700      0.46268200      0.18298400
C          -3.12741500     -0.56464000      0.20724300
C          -0.04558500      1.66486400     -0.17281500
H           1.48167900      0.15329100     -0.69574300
H          -0.08003400      3.51248900      0.08177200
H          -0.62064500     -1.70429000     -0.37646200
H          -2.64604300      1.45862400      0.41939400
H          -2.83975100     -1.59540100     -0.01905300
H          -4.17520400     -0.39399800      0.46348300
