13
b3lypvdz=-344.397228531975 
O          -0.60340100      2.91632900      0.16638700
O           1.21496300      1.74180100     -0.48196200
C          -0.38757900     -0.63750400     -0.30845600
C          -0.86177400      0.60159000     -0.07340400
C          -1.13109600     -1.89873000     -0.26593800
C          -2.45142500     -2.04278400     -0.06521400
C           0.04245300      1.76601600     -0.16441500
H           0.05885800      3.62626200      0.07963400
H           0.67587900     -0.70496200     -0.56104000
H          -1.90014100      0.80124400      0.20169800
H          -0.52815600     -2.79829900     -0.42758900
H          -3.11669800     -1.18777200      0.08685800
H          -2.91288300     -3.03269200     -0.05206000
