14
b3lypvdz=-419.615486912444 
O           0.93403300     -0.80544300     -0.69196800
O          -0.62582800      2.91560400      0.17974800
O           1.17278600      1.74013200     -0.49827900
C          -0.33870900     -0.64398300     -0.33200400
C          -0.86601500      0.59453800     -0.05106500
C          -1.08299400     -1.91286700     -0.26581300
C          -2.40304000     -2.04338800     -0.08078700
C          -0.01945700      1.75566300     -0.14933200
H           1.33341600      0.11755700     -0.70600700
H           0.04850600      3.61055000      0.07010500
H          -1.89780200      0.71662000      0.26946100
H          -0.45332600     -2.79672300     -0.40328400
H          -3.06681900     -1.18255700      0.03612400
H          -2.86805100     -3.03100300     -0.04640000
