13
b3lypvdz=-344.392099831063 
O          -0.75452000      2.77291800      0.18479500
O           1.13395800      1.77483600     -0.51366400
C          -0.12651400     -0.71870800     -0.34624000
C          -0.82396400      0.41137000     -0.12577500
C          -2.27292900      0.48725000      0.16084200
C          -3.12975000     -0.54317000      0.19837400
C          -0.02925000      1.68660300     -0.18426800
H          -0.14761500      3.53093900      0.10174400
H           0.94104400     -0.65788900     -0.56133800
H          -0.59679100     -1.70344300     -0.32308200
H          -2.65755000      1.49054100      0.35235700
H          -2.82180700     -1.57698200      0.01636300
H          -4.18631200     -0.37486400      0.41969300
