12
b3lypvdz=-455.520045489862 
O           1.06281600     -0.98765000     -0.62294300
O          -0.79689600      2.79107200      0.21234700
O           1.15716200      1.89086200     -0.46233900
O           1.84112700     -0.41890600      1.45278500
C          -0.25601900     -0.73075600     -0.32494100
C          -0.77610900      0.48570100     -0.11644400
C          -0.00725800      1.74966800     -0.15205300
C           2.03477500     -0.72007600      0.31468100
H          -0.23093900      3.58333300      0.16398700
H          -0.87368500     -1.63376300     -0.31310200
H          -1.84519400      0.56377000      0.08683900
H           3.01542000     -0.87245400     -0.17401600
