13
b3lypvdz=-307.305308642199 
O           1.07337500     -0.91226700     -0.63170400
C          -0.26033600     -0.76958100     -0.35946200
C          -0.85443600      0.48189900     -0.14090200
C          -1.03869500     -1.93355300     -0.30605900
C          -2.22487500      0.56366600      0.12815500
C          -2.40624600     -1.84013700     -0.03755500
C          -3.00649600     -0.59377800      0.17904600
H           1.48274800     -0.03490900     -0.63368500
H          -0.25005800      1.39497200     -0.17698500
H          -0.56310200     -2.90094400     -0.48115300
H          -2.68408900      1.53948300      0.30723900
H          -3.00926800     -2.75082300      0.00560900
H          -4.07562100     -0.52622800      0.39495400
