8
b3lypvdz=-191.813564450441 
O           1.11876900      1.80458100     -0.43850100
C          -0.06340600      1.75952500     -0.16839600
C          -0.86207300      0.51711400     -0.13377500
C          -2.17236200      0.53612700      0.14774100
H          -0.64126800      2.69030900      0.08036000
H          -0.32335900     -0.40825400     -0.36149400
H          -2.77341300     -0.37651400      0.16700900
H          -2.68868800      1.47641300      0.37115500
