12
b3lypvdz=-232.108863575017 
C          -0.25549300     -0.76831900     -0.32306800
C          -0.84922800      0.48050400     -0.10979900
C          -1.03443000     -1.92975900     -0.28966400
C          -2.22304800      0.56726400      0.13880600
C          -2.40824700     -1.84298700     -0.04108400
C          -3.00203200     -0.59413800      0.17197500
H           0.81695800     -0.83650500     -0.52385000
H          -0.23973100      1.38731600     -0.13801000
H          -0.56975700     -2.90370900     -0.46421900
H          -2.68768200      1.54118100      0.31365000
H          -3.01774500     -2.74979200     -0.01265300
H          -4.07456400     -0.52595500      0.37231600
