11
b3lypvdz=-231.080863504355 
O           1.02032400     -0.85662900     -0.66102900
C          -0.31844800     -0.88225300     -0.35307400
C          -0.93454600      0.43734800     -0.09044700
C          -0.94570000     -2.07126500     -0.31178000
C          -2.22539900      0.70983400      0.14091700
H           1.32034300      0.06260300     -0.66819900
H          -0.23062700      1.28263100     -0.08901200
H          -2.00192300     -2.14967800     -0.05660800
H          -0.39135800     -2.98511100     -0.52837200
H          -2.99520800     -0.06704400      0.15193000
H          -2.55345700      1.73346500      0.33357500
