13
b3lypvdz=-344.396185382482 
O          -0.72066200      2.89876200      0.32254600
O           1.13049700      1.94589500     -0.53592500
C          -0.80581600      0.58991800     -0.22313900
C          -2.11226300      0.50915600      0.10386600
C          -2.52712400     -1.96374700      0.05908000
C          -2.95152500     -0.68905600      0.07911400
C          -0.02487900      1.84185400     -0.17411800
H          -0.10516700      3.65261600      0.27578500
H          -0.23370800     -0.26767900     -0.58304600
H          -2.60644900      1.43583300      0.41087400
H          -1.46548700     -2.22530000      0.07659300
H          -3.23962300     -2.79137600      0.04029200
H          -4.03079500     -0.49977600      0.10537800
