8
b3lypvdz=-191.811063494458 
O           1.13737700      1.78457400     -0.45500900
C          -0.04022900      1.72674700     -0.16480300
C          -0.26811700     -0.72621100     -0.33535500
C          -0.83029300      0.46779500     -0.10231900
H          -0.61591700      2.65496000      0.08809400
H           0.79411100     -0.79113700     -0.58773800
H          -0.84532200     -1.65291800     -0.28710200
H          -1.89081000      0.55929100      0.15523400
