6
b3lypvdz=-78.533082971366 
C          -0.27479900     -0.73708400     -0.32453900
C          -0.82390100      0.46168400     -0.11756200
H           0.79099000     -0.84480700     -0.55073900
H          -0.87231500     -1.65348600     -0.28352000
H          -1.88969100      0.56940900      0.10863800
H          -0.22638400      1.37808400     -0.15858000
