11
b3lypvdz=-231.080374023413 
O           1.18786100     -0.99719000     -0.68504700
C          -0.12825600     -0.79257700     -0.38458000
C          -0.99815900     -1.81665600     -0.31821500
C          -2.42969000     -1.72355500     -0.01096500
C          -3.18130000     -0.62657200      0.19321200
H           1.64567400     -0.14657200     -0.66924800
H          -0.42842300      0.24633500     -0.19916700
H          -0.59345200     -2.81543800     -0.50986100
H          -2.93508000     -2.69441500      0.05555400
H          -2.77164900      0.38778900      0.14644700
H          -4.24492600     -0.71444900      0.42596900
