9
b3lypvdz=-267.041929264386 
O          -0.72374300      2.88132200      0.19670200
O           1.11899700      1.76780900     -0.47966700
C          -0.88519300      0.53000800     -0.10420300
C          -2.20047300      0.53109100      0.14124700
C          -0.04758900      1.75386500     -0.14849000
H          -0.08520400      3.61020800      0.09701000
H          -0.33586000     -0.39005800     -0.31588600
H          -2.77541400     -0.39891300      0.14777600
H          -2.73902100      1.46126900      0.33871000
