7
b3lypvdz=-153.731944624268 
O           1.05792600     -0.93090500     -0.66433300
C          -0.24454900     -0.71206200     -0.33278200
C          -0.83650800      0.46800400     -0.11588800
H           1.50573700     -0.07127300     -0.71392900
H          -0.78282200     -1.66289500     -0.26217700
H          -1.89338800      0.51246400      0.15000500
H          -0.28659600      1.41266700     -0.18429400
