14
b3lypvdz=-419.594553431458 
O           0.88955600     -0.83164600     -1.08093000
O          -0.66227300      2.76811800      0.48279000
O           1.09921800      1.72759600     -0.42652600
C          -0.30544200     -0.83015400     -0.43224200
C          -0.95313500      0.49183800     -0.17172400
C          -0.86899200     -1.99319000     -0.05316400
C          -2.28728600      0.66554500     -0.09318700
C          -0.06671900      1.68867000     -0.05508900
H           1.24498500      0.08236700     -1.05857000
H           0.00131100      3.48254900      0.44839000
H          -1.81283900     -2.01702300      0.48761200
H          -0.36706300     -2.93267100     -0.28674600
H          -2.97179500     -0.16641500     -0.26551700
H          -2.71212500      1.64231500      0.13790400
