7
b3lypvdz=-153.749767714204 
O           1.74110100     -0.56035300      1.47792100
C           2.00423300     -0.70301000      0.30695700
C           3.39658900     -0.67792600     -0.27105000
H           1.18642500     -0.87248800     -0.44557600
H           3.60681400     -1.63775500     -0.77681700
H           4.13676700     -0.49763700      0.52128700
H           3.46817100      0.10586800     -1.04552200
