13
b3lypvdz=-344.372987614683 
O           1.17825500     -1.32924700     -0.32792700
O           1.95748700      0.34627600      1.01432500
C          -0.13604100     -1.09758200      0.04767200
C          -1.09542200     -1.92781900     -0.38333300
C          -2.52059000     -1.75938500     -0.08254400
C          -3.15735200     -0.58982500      0.08631000
C           2.13843700     -0.53399000      0.21748900
H          -0.28395200     -0.23175100      0.69417900
H          -0.79192700     -2.80115400     -0.96990100
H          -3.09760700     -2.68839800     -0.00137500
H          -2.64342200      0.36811600     -0.03500700
H          -4.21751400     -0.55768100      0.34759400
H           3.11394800     -0.83896000     -0.20878200
