13
b3lypvdz=-344.381840219221 
O           1.12299700     -0.78180800     -0.84663100
O           1.14867900      1.69884500     -0.54486200
C          -0.13899500     -0.75242400     -0.48988500
C          -0.81583300      0.40731500     -0.15482400
C          -2.22716200      0.45836300      0.25139600
C          -3.11302100     -0.54700700      0.32264200
C          -0.04887800      1.63267200     -0.21429500
H           1.43119300      0.18938700     -0.81552000
H          -0.61717700     -1.73932500     -0.47994100
H          -2.57197600      1.46181300      0.53158600
H          -2.86032600     -1.57836000      0.05866600
H          -4.13644900     -0.36138700      0.65454000
H          -0.58745300      2.56811500      0.06332800
