9
b3lypvdz=-532.776311582491 
P          -3.31020500      2.00797500     -2.25257300
O          -2.36511000      0.80081100     -1.64067900
C          -1.12949700      0.50132600     -2.31208500
O          -2.69465600      3.35533500     -2.50763300
H          -3.89020700      1.39145300     -3.41004400
H          -4.33439500      1.92309600     -1.26613300
H          -0.65502200     -0.31136200     -1.74524000
H          -1.30806800      0.15719100     -3.34798900
H          -0.46594000      1.38077500     -2.32902300
