12
b3lypvdz=-211.21394762079 
N           1.28312600     -1.59849400     -0.33348200
C          -0.16706400      0.09832000     -1.33466000
C          -1.17428400      0.54175600     -2.35296500
C           2.30575000     -0.90712800     -0.01962500
C           0.39869500     -1.12059500     -1.31394200
H           0.08919200      0.80329200     -0.53486600
H          -2.13289100      0.81962800     -1.87889400
H          -1.37788100     -0.24681000     -3.09446300
H          -0.81932000      1.43496100     -2.89823900
H           2.57633100      0.03996600     -0.52554100
H           2.96062200     -1.25818400      0.79005700
H           0.10462300     -1.88561200     -2.04348000
