14
b3lypvdz=-270.371990333414 
O           2.65806500      1.38930800      0.57643700
C          -0.04925500      0.31078800     -1.55316300
C           0.55802700      0.85425600     -0.48904300
C           1.82187700      0.39123400      0.11160800
C           2.17093300     -0.89877700      0.28288800
C           3.47445100     -1.35646200      0.86824400
H           2.45582000      2.20315000      0.09216800
H          -1.00097700      0.70169500     -1.92183800
H           0.38707800     -0.54062300     -2.08237200
H           0.10684600      1.73369600     -0.00792300
H           1.43501500     -1.65425200     -0.00308700
H           3.32215000     -1.98039100      1.76737300
H           4.03560400     -1.98185900      0.14887900
H           4.10596600     -0.50146200      1.14572700
