8
b3lypvdz=-191.811126758402 
C           0.77044100      1.02811800     -0.58211900
C           1.81551900      0.53556600      0.09746200
O           1.02128100      3.28866500      0.15234200
C           0.41589800      2.47120500     -0.51021200
H           0.14160900      0.38907100     -1.21083700
H           2.42336700      1.20194300      0.71621700
H           2.09079600     -0.52114300      0.05312200
H          -0.47321100      2.77417500     -1.12197500
