17
b3lypvdz=-309.647913948895 
O          -2.54751900      0.49807700     -1.60539200
C          -0.21651000      0.24365400     -1.28312900
C           0.92347600      0.90952000     -1.03013600
C          -1.28295200      0.68330300     -2.23820900
C           2.01244100      0.43240400     -0.16828700
C           2.33088400     -0.85764800      0.04304500
C           3.40804800     -1.35263100      0.95879200
H          -3.23367400      0.61112300     -2.27857700
H          -0.41732500     -0.70979900     -0.78044200
H           1.06705300      1.89753300     -1.48774100
H          -1.21857100      0.06918700     -3.16249000
H          -1.11496300      1.73799600     -2.54250500
H           2.61637100      1.20641000      0.32352400
H           1.76614500     -1.62589600     -0.50066900
H           2.98541000     -1.99455300      1.75424400
H           4.13831700     -1.97997200      0.41484300
H           3.95376800     -0.52720800      1.44423000
