11
b3lypvdz=-248.144895985545 
N           1.47715800     -1.69403300     -0.71634200
C           0.01155900      0.11014400     -1.38561300
C           0.73612600      1.01699800     -0.60944500
C           1.83804100      0.54933300      0.11030000
C           2.16301100     -0.80792800      0.02125200
C           0.42126600     -1.22688600     -1.39965600
H          -0.85847600      0.43078600     -1.96403500
H           0.44335000      2.06994000     -0.56320000
H           2.43608600      1.22323000      0.72839700
H           3.02037200     -1.21415500      0.57093900
H          -0.12639200     -1.97113100     -1.98909800
