13
b3lypvdz=-286.394564134616 
O          -2.41327600      0.88117700     -1.63907800
N           1.35320400     -1.62172800     -0.43134700
C          -0.22056500      0.03242300     -1.30420500
C          -1.21903000      0.49876100     -2.31805700
C           2.30319000     -0.87724000     -0.02464500
C           0.44576900     -1.13227400     -1.38474200
H          -3.01847600      1.25347300     -2.29630400
H          -0.06410300      0.68802200     -0.44076000
H          -1.40551600     -0.30393300     -3.06055300
H          -0.79292900      1.36144900     -2.87598600
H           2.49787600      0.13448200     -0.42990800
H           2.96687200     -1.24649500      0.76962900
H           0.23818200     -1.84581600     -2.19104400
