8
b3lypvdz=-191.813540314845 
C           0.01762500      0.15719200     -1.37144500
C           0.73887800      0.99712000     -0.61679700
O           0.99551700      3.23131500      0.16336300
C           0.39755900      2.43136300     -0.52484600
H          -0.84838500      0.51317300     -1.94048700
H           0.26086200     -0.90600000     -1.44604100
H           1.60650200      0.66876900     -0.03527200
H          -0.48035900      2.74096700     -1.15387400
