15
b3lypvdz=-308.446326877127 
O           0.95901500      3.26021100      0.11696400
C           0.04799900      0.00064700     -1.43848900
C           0.80640300      0.96413200     -0.58326900
C          -1.07634500      0.54108000     -2.29818900
C           1.87224700      0.65038600      0.18065700
C           0.32795400     -1.31401200     -1.46618500
C           0.38753900      2.40961000     -0.53473800
H          -1.86378900      1.02019400     -1.69140000
H          -1.54723100     -0.26914800     -2.87364100
H          -0.71674300      1.29927900     -3.01511200
H           2.35234700      1.43563300      0.76791500
H           2.29325000     -0.35470800      0.23872100
H           1.11609300     -1.76762000     -0.86203800
H          -0.24279100     -1.98994800     -2.10761900
H          -0.50514800      2.68636200     -1.14247700
