13
b3lypvdz=-344.381821375117 
O           2.62802100      1.51468800      0.94849100
O           0.95635600      3.25259000      0.17748600
C           0.09992800      0.02890500     -1.37530200
C           0.85110300      0.98244400     -0.54873200
C           1.97093000      0.66043100      0.20065000
C           0.29696700     -1.29016500     -1.51905300
C           0.40911700      2.36005800     -0.49402200
H           2.13228800      2.40076800      0.84195400
H          -0.72901300      0.48685400     -1.92940000
H           2.39455400     -0.35094300      0.21881300
H           1.09159800     -1.83071900     -0.99620200
H          -0.34976300     -1.88114100     -2.17013900
H          -0.49228700      2.61693000     -1.09644500
