13
b3lypvdz=-610.123811800105 
P          -3.49704200      1.85191600     -2.35270500
O          -2.38137900      0.84752300     -1.67640800
O          -3.08697000      3.27204400     -2.63249900
C          -0.13672500      0.24342800     -1.15906400
C           1.00350100      0.80854300     -0.75932700
C          -1.03692600      0.80592900     -2.21755400
H          -3.94915400      1.12598500     -3.50408000
H          -4.52694300      1.62009000     -1.39261300
H          -0.47150300     -0.70343000     -0.71922900
H           1.63715200      0.33566600     -0.00406600
H           1.35187600      1.75764700     -1.17927500
H          -1.04180600      0.15447500     -3.11271600
H          -0.72098100      1.81668500     -2.52346300
