15
b3lypvdz=-250.510076559078 
N           1.62701100     -1.55748500     -0.81525300
C           0.10100400      0.14330900     -1.69517800
C          -1.17297500      0.55394000     -2.37259700
C           2.09858100     -0.97715100      0.21929700
C           0.41361400     -1.12401900     -1.37130200
C           3.43680900     -1.33541200      0.79017500
H           0.83986500      0.92748600     -1.49076800
H          -1.72177000      1.30232700     -1.77356500
H          -1.84091300     -0.30818900     -2.52851600
H          -0.97956700      1.02046300     -3.35588500
H           1.52524900     -0.18153900      0.73959300
H          -0.26519400     -1.94386700     -1.63799800
H           3.33969700     -1.65822700      1.84223800
H           3.89934500     -2.14215800      0.20495600
H           4.10204300     -0.45357800      0.78680500
