5
b3lypvdz=-40.480475449096 
C          -1.13770200      0.51124700     -2.31929700
H          -2.03661100      0.75515500     -1.73312500
H          -0.32175200      0.23281700     -1.63618600
H          -1.35596000     -0.32936100     -2.99435600
H          -0.83757500      1.38764300     -2.91343700
