11
b3lypvdz=-231.083356082374 
O           2.66002800      1.53870300      0.91753000
C           0.06394500     -0.00540700     -1.36410400
C           0.83583400      0.94138000     -0.54982800
C           1.94380100      0.66417200      0.16616900
C           0.25528300     -1.32760100     -1.51787900
H           2.23718500      2.41173500      0.86366000
H          -0.77357300      0.44984900     -1.90579200
H           0.46149200      1.97372700     -0.53074900
H           2.39774900     -0.32967200      0.21302300
H           1.05747300     -1.87077400     -1.00826400
H          -0.40201700     -1.91591300     -2.16196700
