13
b3lypvdz=-610.124099637288 
P          -3.24223300      2.04050800     -2.19479900
O          -2.48573500      0.61790700     -1.84401900
O          -2.36822100      3.24906800     -2.39377300
C          -0.18123500      0.03229300     -1.40791100
C          -1.19705900      0.34619100     -2.46469400
C           0.49812700     -1.11568000     -1.34338100
H          -4.07201100      1.70718500     -3.31354200
H          -4.15776500      2.05085100     -1.10064800
H           0.00613300      0.83006200     -0.67958700
H          -1.33111600     -0.50321600     -3.15462200
H          -0.87823700      1.23204900     -3.04083500
H           1.25790000     -1.28926200     -0.57668100
H           0.32445200     -1.92375700     -2.06210800
