12
b3lypvdz=-360.428936811719 
O           2.54115700      1.28765700      0.84043400
O           1.06808700      3.27668500      0.23736300
N           1.60225300     -1.82557000     -0.63016200
C           0.70736000      1.11257700     -0.64769000
C           1.76523000      0.56513600      0.04842200
C           2.16064200     -0.87336300      0.00611400
C           0.41276700      2.51116300     -0.49306200
H           2.16879900      2.23220600      0.79672700
H           0.78510700     -1.48366000     -1.15973500
H           0.08435500      0.49829600     -1.29739800
H           3.04564100     -1.09780200      0.62261100
H          -0.44309800      2.92317500     -1.07132300
