10
b3lypvdz=-193.004538922903 
C          -0.17729200      0.24546400     -1.19669000
O          -2.47925600      0.39780500     -1.72735400
C          -1.17715300      0.69990300     -2.22075800
C           0.87878500      0.94971400     -0.78487300
H          -0.36088500     -0.75994100     -0.79954600
H          -3.10246900      0.50647100     -2.45962100
H          -0.98457200      0.16249300     -3.17359300
H          -1.04533600      1.78202900     -2.42539600
H           1.59360200      0.54159600     -0.06562500
H           1.07737500      1.96036600     -1.15804300
