7
b3lypvdz=-568.736813731774 
P          -3.26803700      1.99058400     -2.28620500
O          -3.61848700      1.29387200     -3.72765500
O          -4.63960100      1.81416800     -1.38960400
O          -2.75556700      3.38291800     -2.43862900
H          -2.45827200      1.02515100     -1.62860800
H          -4.10708200      0.46119100     -3.61443500
H          -5.10065300      2.67021600     -1.35466400
