11
b3lypvdz=-285.20813362436 
O           1.06840600      3.31787400      0.20904200
N           1.59674600     -1.85192400     -0.64778200
C           0.71472500      1.10388800     -0.61189500
C           1.74857200      0.53756400      0.04121500
C           2.14713700     -0.88774100     -0.01300900
C           0.42028400      2.55335300     -0.47699400
H           0.76809700     -1.51894900     -1.16661900
H           0.05196400      0.52180500     -1.26257500
H           2.36209900      1.19261200      0.66952100
H           3.04283600     -1.13816000      0.57889000
H          -0.46266700      2.91617900     -1.06169400
