14
b3lypvdz=-324.497264685072 
O           1.27335700      3.30315500      0.00668800
N           1.22185500     -1.87218400     -0.59735800
C           0.02789900      0.19844400     -1.37272900
C           0.75849500      1.10233900     -0.67828700
C          -1.14166300      0.52031800     -2.26500800
C           0.33389000     -1.26511800     -1.28237100
C           0.58489400      2.56253600     -0.67010900
H           1.78111500     -1.20162300     -0.04626100
H           1.58649200      0.76733600     -0.04274400
H          -2.06341100      0.08214100     -1.84160700
H          -1.00272200      0.04929400     -3.25354800
H          -1.31102400      1.59314300     -2.41225400
H          -0.32008300     -1.89962200     -1.90565800
H          -0.22169400      2.97914100     -1.32205500
