13
b3lypvdz=-195.176575739886 
C          -0.04905700      0.28744400     -1.60658500
C           0.60627600      0.88784200     -0.60043600
C           1.83943800      0.40647800      0.04073200
C           2.18998500     -0.88027700      0.21309800
C           3.47124400     -1.34445500      0.84148000
H          -0.97329600      0.70826000     -2.01096100
H           0.32141500     -0.63611000     -2.06128700
H           0.21605800      1.83992600     -0.21909500
H           2.50957900      1.18498600      0.42832400
H           1.49160400     -1.66193100     -0.11157700
H           3.28018200     -1.96151100      1.73836200
H           4.04685900     -1.98030200      0.14378600
H           4.11021300     -0.49755000      1.13755800
