13
b3lypvdz=-286.407221003581 
O           2.73635800      1.52728600      0.70021700
N           1.11158800     -1.60020900     -0.32174100
C           1.82119700      0.62836400      0.21358900
C           2.07741000     -0.69618200      0.16507600
C           0.53276400     -1.36842900     -1.43528900
C           3.32860300     -1.31718400      0.72173000
H           2.26261100      2.31278300      1.00790700
H           0.85510500      1.02618600     -0.11613200
H           0.79701500     -0.51513700     -2.08932000
H          -0.26795000     -2.04190000     -1.77073200
H           3.06479900     -2.10603200      1.44562200
H           3.92107100     -1.79978900     -0.07645500
H           3.95563000     -0.56315600      1.21692800
