6
b3lypvdz=-78.533105507218 
C           0.01505700      0.13741900     -1.38143500
C           0.70524300      1.00248100     -0.63656500
H          -0.83947900      0.45936900     -1.98574900
H           0.27977400     -0.92503400     -1.41101100
H           1.55977800      0.68053100     -0.03225000
H           0.44052700      2.06493400     -0.60698900
