7
b3lypvdz=-153.731966076815 
C           0.74396900      1.01457900     -0.60757800
O           2.63204600      1.33122900      0.87479100
C           1.80465800      0.58858200      0.08845000
H           0.15844300      0.31056000     -1.19979800
H           0.42779300      2.06353300     -0.60398500
H           2.31691800      2.24965000      0.86706100
H           2.12457300     -0.45843300      0.09315800
