13
b3lypvdz=-195.174428440853 
C           0.04972000     -0.05297900     -1.45817700
C           0.76961300      0.91789100     -0.59953400
C          -1.05322600      0.54448000     -2.30144000
C           1.81837700      0.69295400      0.20584500
C           0.32715000     -1.36793700     -1.50184300
H           0.37769200      1.94186900     -0.64286600
H          -1.78829400      1.07310300     -1.66767200
H          -1.58947600     -0.22040500     -2.88340100
H          -0.64674700      1.29289500     -3.00590600
H           2.25560600      1.50624100      0.78958800
H           2.28382000     -0.29162900      0.30874900
H           1.11657400     -1.82078900     -0.89658800
H          -0.23670800     -2.03809500     -2.15605600
