10
b3lypvdz=-193.018410325006 
O           2.64007500      1.43754200      0.82567800
C           1.88130800      0.52793600      0.12741800
C           2.20293600     -0.76973400      0.07671000
C           3.38796200     -1.38403900      0.76918300
H           2.20538200      2.29871600      0.77962400
H           0.99453600      0.92302000     -0.38371400
H           1.54465200     -1.42341500     -0.50259800
H           3.07217600     -2.16160800      1.48873500
H           4.06600700     -1.87874600      0.04869500
H           3.96626700     -0.62687200      1.31966900
