10
b3lypvdz=-247.129171707792 
O           2.62067700      1.26232200      0.85211100
N           1.58515800     -1.79580900     -0.67385600
C           0.69741300      1.13702700     -0.59090800
C           1.75143200      0.59010000      0.04070500
C           2.14069200     -0.84624900     -0.03154000
H           2.34917000      2.19233700      0.89604800
H           0.76224600     -1.44963400     -1.19278300
H           0.04247600      0.53361500     -1.22064400
H           0.44673800      2.19677300     -0.48909200
H           3.03219800     -1.08668200      0.57095700
