13
b3lypvdz=-286.422393059557 
O           2.65793500      1.25415000      0.82180300
N           1.53704100     -1.78289300     -0.72201200
C           0.70271700      1.10275100     -0.55446900
C           1.77483300      0.55456600      0.04486800
C           2.15786700     -0.89880600     -0.03856000
C           3.36927200     -1.31339500      0.76160700
H           2.37197700      2.18005000      0.85457600
H           0.73211100     -1.36889000     -1.21333500
H           0.01838700      0.50674900     -1.15756900
H           0.46484700      2.16500300     -0.44697500
H           3.22393700     -1.09335800      1.83254000
H           3.54089200     -2.38857800      0.62116000
H           4.25838200     -0.74774800      0.44036400
