8
b3lypvdz=-133.871323939741 
C           2.16637600     -0.86790800      0.01505700
C           3.37599300     -1.33538100      0.77236100
N           1.48368200     -1.66196300     -0.70977100
H           1.91954200      0.20888600      0.13302400
H           3.26726100     -1.12031600      1.85162800
H           3.51875200     -2.41650900      0.62441000
H           4.27695100     -0.79505000      0.43128000
H           0.69984400     -1.15385800     -1.14378900
