9
b3lypvdz=-171.930354335776 
C           0.07160500      0.16464200     -1.34589900
C           0.67481900      1.13222600     -0.64238500
C           0.47083500     -1.26863600     -1.34969800
N           1.43754900     -1.83439600     -0.73704900
H          -0.79299800      0.41266000     -1.97183600
H           1.53982000      0.93870300      0.00133100
H           0.31612800      2.16413200     -0.68681600
H          -0.16673200     -1.92074000     -1.97004600
H           1.97087400     -1.14139100     -0.18700200
