12
b3lypvdz=-323.340042393512 
O           2.63489100      1.34804800      0.87282100
N           1.46958400     -1.68830300     -0.71151200
C           0.00830000      0.10103100     -1.38956300
C           0.73071100      1.01571700     -0.61974000
C           1.84069500      0.55422800      0.09725500
C           2.16020800     -0.81262400      0.02093300
C           0.41498800     -1.23612200     -1.40550300
H           2.28980200      2.25342500      0.84942400
H          -0.86308800      0.42299900     -1.96508100
H           0.43054100      2.06865600     -0.57375900
H           3.01558100     -1.19504000      0.58843800
H          -0.13201100     -1.98031400     -1.99361300
