14
b3lypvdz=-270.372432173412 
O           2.54563800      1.55148800      0.92031800
C           0.05702300     -0.06429000     -1.44583400
C           0.79352200      0.90183900     -0.60652600
C          -1.05756900      0.54485700     -2.26670600
C           1.88106600      0.65462200      0.14741700
C           0.31363200     -1.38487100     -1.50989800
H           2.10166600      2.41239000      0.84692800
H           0.40373800      1.92931100     -0.60476100
H          -1.78100800      1.07318000     -1.61892500
H          -1.60568600     -0.21651500     -2.84224000
H          -0.66043100      1.29448200     -2.97545600
H           2.36018600     -0.32572900      0.21451900
H           1.10322200     -1.86202000     -0.92346900
H          -0.27149900     -2.03584600     -2.16406700
