13
b3lypvdz=-361.421924231412 
O           0.99818400      3.28270100      0.12853100
N           1.46401400     -1.69847800     -0.71180900
C           0.02026200      0.12157600     -1.36786300
C           0.76371900      1.01969900     -0.59436800
C           1.86424800      0.53211900      0.12340800
C           2.16827400     -0.82583900      0.02872300
C           0.41102300     -1.22165300     -1.38872500
C           0.39833600      2.46259000     -0.53173100
H          -0.84930400      0.45802600     -1.93957200
H           2.45964500      1.21442400      0.73269200
H           3.02294200     -1.24211900      0.57263500
H          -0.15135500     -1.95309500     -1.97848500
H          -0.49048900      2.75004900     -1.15103700
