12
b3lypvdz=-211.220403701603 
N           1.33014700     -1.83064700     -0.61982300
C           0.06598200      0.19130000     -1.39666600
C           0.74948200      1.13546000     -0.73173000
C          -1.09044600      0.51514200     -2.30849300
C           0.39580000     -1.26336400     -1.27669400
H           1.90230800     -1.12628500     -0.12690500
H           1.58536100      0.89763000     -0.06626200
H           0.49515400      2.19410900     -0.83522500
H          -2.01274200      0.01431100     -1.96330100
H          -0.89241600      0.15789300     -3.33542800
H          -1.28702100      1.59671300     -2.35299600
H          -0.27630900     -1.93116300     -1.84417600
