13
b3lypvdz=-286.400849411894 
O          -2.29798300      0.34511300     -1.74176300
N           1.27701400     -1.83682500     -0.84089500
C           0.03646900      0.26907100     -1.32064100
C           0.75091400      1.17468300     -0.63736000
C          -1.03319800      0.66757300     -2.31256100
C           0.20476000     -1.19565300     -1.11251900
H          -2.94961900      0.31953400     -2.45768000
H           2.07025300     -1.17649400     -0.78557400
H           1.48906400      0.86988200      0.10986700
H           0.60543000      2.24735900     -0.79173600
H          -0.87264400      0.11313500     -3.25924100
H          -0.94879400      1.74750200     -2.54157800
H          -0.72046700     -1.78458100     -1.23121900
