10
b3lypvdz=-247.110672079719 
O           2.71118000      1.37415600      0.94511900
N           1.39377400     -1.64631800     -0.73216300
C           1.89336500      0.61294300      0.16099400
C           2.11526500     -0.70898400      0.03026500
C           0.38902900     -1.34260200     -1.45765500
H           2.37756300      2.28134200      0.95205300
H           1.07072300      1.13859200     -0.33918300
H           2.96177700     -1.12980200      0.58235300
H          -0.03791200     -0.32688300     -1.57864700
H          -0.11436500     -2.14704300     -2.01043500
