12
b3lypvdz=-269.162051281497 
O           0.97854400      3.31758300      0.01113900
C           0.06583400      0.02846700     -1.33032800
C           0.87449800      0.97438200     -0.54068300
C           1.96774700      0.68167100      0.19168200
C           0.24740000     -1.29398800     -1.45605100
C           0.42371400      2.40600300     -0.56308900
H          -0.77807200      0.48219900     -1.86478200
H           2.47841600      1.48235900      0.73076800
H           2.37779400     -0.32802100      0.26776000
H           1.05974000     -1.82728800     -0.95356900
H          -0.42591300     -1.89297000     -2.07330000
H          -0.49920100      2.59210400     -1.17394700
