11
b3lypvdz=-285.210082644498 
O           0.86570500      3.38063600      0.11316900
N           1.40418400     -1.89468800     -0.78154200
C           0.12829700      0.17850300     -1.29974500
C           0.76737700      1.10408500     -0.55844700
C           0.45841900     -1.26467400     -1.36603500
C           0.33921500      2.51530400     -0.55483200
H           1.97467100     -1.25054300     -0.21040200
H          -0.72474100      0.49706500     -1.91169800
H           1.62407100      0.86702500      0.08199200
H          -0.20975700     -1.86456400     -2.00491600
H          -0.52934200      2.74265100     -1.22754300
