14
b3lypvdz=-324.502557297029 
O           0.90871300      3.20645100      0.44650600
N           1.39138400     -1.90208000     -0.51026600
C           0.84004100      1.11065300     -0.69437400
C           1.64140600      0.45486600      0.16669200
C           2.06866900     -0.96514700      0.04397200
C           3.41642200     -1.28592100      0.64470800
C           0.50194400      2.54119400     -0.48507000
H           0.48648200     -1.53899600     -0.84493100
H           0.42834900      0.62134500     -1.58384900
H           2.04729700      1.03354500      1.00514900
H           3.40609200     -1.09067000      1.73248100
H           3.66586800     -2.33848600      0.45984200
H           4.19754300     -0.63584700      0.21582800
H          -0.16391000      2.99219400     -1.26378800
