9
b3lypvdz=-267.031516259225 
O           2.59711700      1.33470100      0.86507500
O           1.05812500      3.24627400      0.18527500
C           0.75239400      1.03610500     -0.59862300
C           1.83322900      0.57193800      0.10960900
C           0.42193800      2.43409100     -0.50965100
H           2.19336200      2.26101200      0.79194900
H           0.15313700      0.36111700     -1.20878000
H           2.14310200     -0.48067900      0.09656400
H          -0.45260300      2.79554000     -1.09741800
