13
b3lypvdz=-344.367181370088 
O           2.64811800      1.34041800      0.84111800
O           0.94385100      3.23538800      0.14684200
C          -0.05934800      0.23145400     -1.43842800
C           0.74378000      0.96248300     -0.63475600
C           1.92394400      0.44130000      0.12358500
C           2.29097200     -0.85443200      0.12652300
C           0.36948700      2.39487300     -0.52874400
H           2.21609000      2.21903100      0.76863300
H          -0.90358100      0.70431200     -1.94662900
H           0.08823400     -0.83467500     -1.61693800
H           1.75006600     -1.61541700     -0.43181800
H           3.16229700     -1.15860700      0.70746700
H          -0.52080900      2.68337200     -1.13815700
