14
b3lypvdz=-685.358606360642 
P          -3.47184100      1.86424800     -2.32762900
O          -2.40206100      0.70422100     -1.87899100
O          -4.59731500      1.75144100     -1.14618000
O          -2.88874200      3.21590600     -2.60739200
C          -0.16214700      0.26826600     -1.16078500
C           0.95980400      0.85894900     -0.74504400
C          -1.01160500      0.75773300     -2.29489600
H          -4.22545400      1.25123400     -3.36044400
H          -4.33091800      2.28628000     -0.37824600
H          -0.50898000     -0.65901500     -0.68940600
H           1.56326100      0.42866200      0.05880100
H           1.32376700      1.78614400     -1.19956800
H          -0.90496500      0.08820200     -3.16810400
H          -0.74430300      1.78213200     -2.59851600
