14
b3lypvdz=-685.356077265767 
P          -3.50504300      1.99619500     -2.31853300
O          -2.43908200      0.86771900     -1.77393400
O          -4.24375100      1.29780300     -3.61234200
O          -2.98158700      3.35723000     -2.63802000
C          -0.21126900      0.23873800     -1.20232300
C           0.94961100      0.74130200     -0.77616700
C          -1.06866400      0.86624500     -2.25935000
H          -4.44718500      1.87726200     -1.26342700
H          -4.42187100      0.35791200     -3.44216800
H          -0.59076700     -0.70273500     -0.78859600
H           1.55234400      0.21990800     -0.02755300
H           1.34789000      1.68128300     -1.17073100
H          -1.03649000      0.27204200     -3.19054700
H          -0.74863700      1.89499600     -2.48990800
