12
b3lypvdz=-306.28330271096 
O          -1.90111600      1.54650100     -2.05881800
O           0.82485100      3.03510400      0.62314800
C           0.11678900      0.26989500     -1.60636900
C           0.69399400      1.10002600     -0.71521600
C          -1.21018400      0.33853800     -2.30078300
C           0.16661700      2.36575700     -0.15379300
H          -2.68619000      1.56735100     -2.62345700
H           0.68227000     -0.62409400     -1.89961200
H           1.68731000      0.84159500     -0.33069100
H          -1.80094100     -0.54396600     -1.96734000
H          -1.02005500      0.17893300     -3.38486500
H          -0.84714600      2.67416000     -0.48090400
