12
b3lypvdz=-269.16638523181 
O           1.02718800      3.14878000      0.18412100
C          -0.10537800      0.21954100     -1.47825600
C           0.69987400      0.93206900     -0.66415700
C           1.86331700      0.43428600      0.09295000
C           2.31750700     -0.82566300      0.13601100
C           0.39201800      2.38336700     -0.50989300
H          -0.94167100      0.70508500     -1.98888200
H           0.03638500     -0.84707100     -1.66741100
H           2.37858300      1.21076400      0.66549500
H           1.84637000     -1.64634100     -0.41312600
H           3.19751900     -1.07858000      0.73216500
H          -0.49511300      2.73266500     -1.09941700
