15
b3lypvdz=-382.730189605719 
     O    -16.05631900     -8.36745000    -13.66930000
     C    -17.35543600     -8.75237000    -13.30474800
     C    -17.44263500    -10.25759400    -13.13126000
     O    -16.50013000    -10.99428400    -13.34311300
     O    -18.65438900    -10.66698400    -12.73641900
     C    -18.81515800    -12.10082200    -12.56803300
     C    -20.26582500    -12.35589100    -12.21671100
     H    -17.66992300     -8.27096600    -12.35852200
     H    -18.12614300    -12.43978500    -11.77746900
     H    -20.93173500    -11.98904600    -13.01328300
     H    -20.43656800    -13.43739800    -12.09306300
     H    -20.54129200    -11.85068800    -11.27779500
     H    -15.56705200     -9.20501600    -13.77056300
     H    -18.10519300     -8.45901400    -14.06766500
     H    -18.51570100    -12.59989100    -13.50285600
