5
b3lypvdz=-40.480451763867 
     C      2.46652900     -3.25489000     -1.37496400
     H      3.24858500     -3.07748000     -2.12751800
     H      2.71140200     -2.70483500     -0.45428300
     H      2.40679000     -4.33134100     -1.15352600
     H      1.49819400     -2.90495400     -1.76370900
