9
b3lypvdz=-304.165852621076 
     O    -10.43222900     -3.11437700     -6.92655400
     C    -11.34393300     -4.10245900     -7.32251800
     C    -11.93536100     -3.78052000     -8.67820200
     O    -11.79328500     -2.70849900     -9.22308500
     O    -12.66000400     -4.79834000     -9.18754000
     H    -10.84006500     -5.08533100     -7.37343600
     H    -10.58128900     -2.36693100     -7.53343900
     H    -12.19533400     -4.21525300     -6.61638800
     H    -13.02840000     -4.47639000    -10.03223900
