12
b3lypvdz=-343.457238806048 
     O    -13.68425800     -5.89332500    -12.34033800
     C    -14.08515100     -7.05545200    -13.03032800
     C    -13.74324900     -6.93766600    -14.51736700
     C    -15.56984600     -7.29873900    -12.79638400
     O    -16.25098100     -6.60597100    -12.06962100
     O    -16.04780100     -8.37039800    -13.45898900
     H    -13.57063500     -7.94860400    -12.61450400
     H    -12.66463500     -6.75096900    -14.62811600
     H    -14.00654900     -7.85781000    -15.06017200
     H    -14.28546200     -6.08941800    -14.96375500
     H    -14.45093800     -5.62815100    -11.80067900
     H    -16.99059400     -8.44189800    -13.21724800
