14
b3lypvdz=-307.544318327381 
     C    -13.69551300     -5.94034000    -11.02225800
     O    -14.14554500     -6.87579000    -10.40061900
     O    -13.49903800     -5.95853400    -12.36268600
     C    -13.85496700     -7.18486700    -13.04289100
     C    -13.86884600     -6.88322600    -14.52863000
     C    -13.27944400     -4.60983900    -10.43995300
     H    -13.11334200     -7.95927300    -12.78336400
     H    -12.87939800     -6.54413700    -14.87520500
     H    -14.14928000     -7.78353200    -15.09859700
     H    -14.59936100     -6.09079700    -14.75598100
     H    -12.19204200     -4.47345200    -10.55936000
     H    -14.83301600     -7.53075800    -12.67360300
     H    -13.54426600     -4.57392800     -9.37603400
     H    -13.77264300     -3.79102600    -10.98471900
