15
b3lypvdz=-382.729705404085 
     O     -2.64787900     -3.02684600     -3.11595000
     C     -3.36917300     -3.74209300     -4.08197600
     C     -3.97739400     -2.80092400     -5.10648500
     O     -4.02691700     -1.59912900     -4.93305300
     O     -4.45998500     -3.44998500     -6.17775100
     C     -5.08707500     -2.63923500     -7.20703100
     C     -4.05259100     -2.04910700     -8.14990000
     H     -2.70905500     -4.46276100     -4.59359200
     H     -5.75705200     -3.33916900     -7.72687600
     H     -3.43916600     -2.84231400     -8.60699600
     H     -4.56069700     -1.49527200     -8.95680700
     H     -3.39319400     -1.35073000     -7.61275300
     H     -2.99132900     -2.11564400     -3.16497800
     H     -4.20715300     -4.33065800     -3.64796100
     H     -5.68213800     -1.85143400     -6.72179100
