5
b3lypvdz=-189.683712400974 
     O    -19.63269100    -11.33634300    -15.25550400
     O    -19.72353800    -13.53798100    -14.74108400
     C    -19.48271700    -12.23939800    -14.47503500
     H    -20.03568100    -13.57102900    -15.66699900
     H    -19.12247300    -12.13874900    -13.43017800
