15
b3lypvdz=-382.7296112275 
     O      0.16233900     -2.85621400     -0.99573100
     C     -1.14766900     -2.55222700     -1.39319600
     C     -1.58577900     -3.42246400     -2.55634000
     O     -0.98331600     -4.42986800     -2.87434900
     O     -2.70365900     -2.96452900     -3.14118200
     C     -3.29211900     -3.79054900     -4.18288700
     C     -4.18078600     -4.86444500     -3.58016000
     H     -1.88857900     -2.72852700     -0.58256800
     H     -2.48621200     -4.22679800     -4.79110100
     H     -4.93824200     -4.41582000     -2.91781700
     H     -4.70202900     -5.41564800     -4.38020800
     H     -3.58183800     -5.58475100     -3.00244600
     H      0.35397900     -3.72466400     -1.39583200
     H     -1.23382600     -1.48820900     -1.67271100
     H     -3.87036300     -3.07928500     -4.78897100
