12
b3lypvdz=-343.4392485954 
     O      0.15422200     -2.84740900     -0.97115100
     C     -1.14724300     -2.52717700     -1.38347400
     C     -1.60456100     -3.44785700     -2.49746900
     O     -0.98440400     -4.43980700     -2.82246700
     O     -2.75158200     -3.03962100     -3.05867700
     C     -3.25218400     -3.84978900     -4.13894500
     H     -1.88117600     -2.62037500     -0.55438300
     H     -2.51794300     -3.89085200     -4.95773800
     H      0.35641300     -3.69613100     -1.40679800
     H     -1.20448800     -1.48396300     -1.74531300
     H     -3.46363800     -4.87234600     -3.79141800
     H     -4.17321500     -3.35787200     -4.47356700
