17
b3lypvdz=-346.829095122747 
     C     -8.54161900     -1.79335000     -7.12099300
     C     -9.12359200     -0.51150200     -7.74007800
     C     -9.28931200     -3.03897400     -7.55465700
     O     -8.88858500     -3.86981700     -8.33962200
     O    -10.49827400     -3.10559100     -6.94385000
     C    -11.33281100     -4.23927900     -7.27612600
     C    -12.46566100     -4.27253400     -6.27047800
     H     -8.59552200     -1.72481900     -6.02182400
     H     -9.05335800     -0.53116200     -8.84011100
     H    -10.18227700     -0.38866600     -7.46144200
     H     -8.57050400      0.37023200     -7.38048000
     H    -10.71799800     -5.15228000     -7.25280700
     H    -13.05183200     -3.34024200     -6.30353700
     H    -13.14448100     -5.11247400     -6.49081600
     H    -12.07396800     -4.39934400     -5.24818900
     H     -7.49168500     -1.92774600     -7.41915000
     H    -11.70471900     -4.11635200     -8.30784000
