11
b3lypvdz=-268.265812920532 
     C    -14.10643300     -7.06905100    -13.03204000
     C    -13.73934900     -6.94117200    -14.52816800
     C    -15.58881100     -7.27393300    -12.80595800
     O    -16.30935400     -6.56982900    -12.13813300
     O    -16.03715600     -8.40597600    -13.41528100
     H    -13.57368000     -7.93531800    -12.58960400
     H    -12.65639600     -6.75434100    -14.65003400
     H    -13.99434900     -7.86217600    -15.08326500
     H    -14.28248300     -6.10238200    -15.00066900
     H    -13.81561500     -6.17165000    -12.46273400
     H    -16.98427400     -8.45777100    -13.19631600
