12
b3lypvdz=-343.439024563556 
     O     -2.58609900     -3.00947000     -3.17485900
     C     -3.28228700     -3.79065600     -4.10685200
     C     -3.85423000     -2.92849400     -5.21759600
     O     -3.88870800     -1.71647300     -5.16140400
     O     -4.33830100     -3.65723000     -6.23497800
     C     -4.95790800     -2.90750800     -7.29580200
     H     -2.60858800     -4.55022800     -4.53802800
     H     -5.38671800     -3.65629800     -7.97296700
     H     -2.94462000     -2.10871700     -3.27184900
     H     -4.13694800     -4.34510600     -3.65927800
     H     -4.20973500     -2.29239500     -7.81909700
     H     -5.74135900     -2.24702500     -6.89558900
