12
b3lypvdz=-343.456946320256 
     C    -13.19794700     -5.79466700    -11.17200000
     O    -12.80493300     -6.78107600    -10.58673100
     O    -13.59396900     -5.80039300    -12.46026500
     O    -12.53823600     -4.39833100     -9.34560900
     C    -13.33801700     -4.43203700    -10.50764200
     C    -14.81874800     -4.16089500    -10.19953200
     H    -12.95987600     -3.66386400    -11.20474200
     H    -14.91279900     -3.18749900     -9.69477700
     H    -15.42816200     -4.15416500    -11.11713400
     H    -15.21009100     -4.93552000     -9.51930900
     H    -13.51048600     -6.72115400    -12.77229600
     H    -12.44533500     -5.32730000     -9.06716500
