17
b3lypvdz=-346.829073454762 
     C    -13.64250300     -6.01290600    -11.00143400
     O    -13.86547900     -7.03235800    -10.38589500
     O    -13.64888600     -5.94437500    -12.35487100
     C    -13.92770800     -7.18230400    -13.05257100
     C    -13.82952800     -6.88944300    -14.53505100
     C    -13.35116500     -4.65729800    -10.39018500
     C    -14.58827800     -3.74407400    -10.40526900
     H    -13.20644700     -7.94359000    -12.71471200
     H    -12.81856500     -6.54330500    -14.80326300
     H    -14.05198500     -7.79940600    -15.11571700
     H    -14.54928300     -6.11072400    -14.83033800
     H    -12.53423000     -4.18213100    -10.95545900
     H    -14.35422500     -2.77781600     -9.93125500
     H    -14.92216200     -3.54917400    -11.43638000
     H    -15.42380100     -4.20175200     -9.85166500
     H    -14.93019900     -7.54005500    -12.76429500
     H    -13.01685500     -4.83819000     -9.35854000
