17
b3lypvdz=-346.828992218659 
     C    -17.39652000     -8.78200400    -13.27581100
     C    -18.26076700     -8.03892500    -14.30499600
     C    -17.52664100    -10.28419500    -13.42109900
     O    -16.74924200    -11.01223300    -13.99695800
     O    -18.66948200    -10.72145300    -12.83848000
     C    -18.95340700    -12.13325400    -12.95972200
     C    -20.08622800    -12.44623200    -12.00504200
     H    -17.70665600     -8.49754100    -12.25729600
     H    -17.96554100     -8.30795100    -15.33277700
     H    -19.32687500     -8.28593600    -14.17481300
     H    -18.14320800     -6.94901900    -14.19157100
     H    -18.04063100    -12.70477200    -12.73026400
     H    -20.97667300    -11.84226100    -12.24027000
     H    -20.36165700    -13.51073900    -12.07933400
     H    -19.78821900    -12.23416800    -10.96517400
     H    -16.33434500     -8.53057400    -13.41151300
     H    -19.22460900    -12.35044200    -14.00738100
