15
b3lypvdz=-382.730126724874 
     O    -13.69465400     -5.90885400    -12.32730100
     C    -14.09922000     -7.07254100    -12.99581300
     C    -15.57942100     -7.33337900    -12.78453000
     O    -16.28036100     -6.59829400    -12.11699600
     O    -15.99906900     -8.44344200    -13.40836200
     C    -17.40715900     -8.77718500    -13.26889400
     C    -18.25443000     -8.06567700    -14.30885700
     H    -13.53878100     -7.95883300    -12.64005600
     H    -17.72910300     -8.51860200    -12.24942400
     H    -17.89364700     -8.28348100    -15.32728600
     H    -19.29879000     -8.41166800    -14.23175500
     H    -18.24299700     -6.97630100    -14.14856100
     H    -14.50937400     -5.55110000    -11.92763400
     H    -13.92073500     -7.00578500    -14.08809300
     H    -17.43766000     -9.86825900    -13.40063800
