14
b3lypvdz=-307.538747893128 
     C    -14.10677800     -7.07177100    -13.03260900
     C    -13.75444700     -6.95168100    -14.52326900
     C    -15.58327200     -7.30673300    -12.78715100
     O    -16.31428300     -6.60386900    -12.12665700
     O    -16.00630300     -8.43155800    -13.41776200
     C    -17.39887600     -8.74220500    -13.25506900
     H    -13.55198800     -7.91705700    -12.58955100
     H    -12.68216700     -6.73416800    -14.65133400
     H    -13.98416800     -7.88515900    -15.05934100
     H    -14.32249700     -6.13828500    -15.00245600
     H    -17.64630900     -8.88557200    -12.19186200
     H    -13.83301800     -6.16288900    -12.47782400
     H    -18.02860600     -7.93343200    -13.65612600
     H    -17.56398600     -9.66961800    -13.81758700
