14
b3lypvdz=-307.538552802874 
     C     -3.28471100     -3.85468300     -4.19850600
     C     -4.20009600     -4.87534300     -3.50234500
     C     -4.05111400     -2.95972400     -5.15224200
     O     -4.44899400     -1.84119500     -4.91537900
     O     -4.26487000     -3.58974400     -6.33609800
     C     -4.99681200     -2.83700100     -7.31517300
     H     -2.50281500     -4.38293400     -4.76700200
     H     -4.97344200     -4.36614100     -2.90450600
     H     -4.70317700     -5.52527600     -4.23626900
     H     -3.61232100     -5.51585100     -2.82474300
     H     -5.06994000     -3.49310700     -8.19153300
     H     -2.80438300     -3.20051000     -3.45584300
     H     -4.46276900     -1.90898000     -7.57048700
     H     -5.99755500     -2.56951100     -6.94167500
