13
b3lypvdz=-381.524663980579 
     C    -13.54984400     -5.94798300    -11.01174600
     O    -13.58862600     -6.99296300    -10.40936600
     O    -13.75785200     -5.85665100    -12.35994700
     C    -14.14725700     -7.06270200    -13.00072400
     C    -15.63046400     -7.34073500    -12.84327700
     O    -16.37619500     -6.67568500    -12.17027700
     C    -13.25409400     -4.59011600    -10.43102600
     H    -13.58321800     -7.92959400    -12.61340700
     H    -12.40271200     -4.13333400    -10.95868200
     H    -13.91577200     -6.94027800    -14.07209500
     H    -15.98496200     -8.23562700    -13.42311500
     H    -13.02874100     -4.69040800     -9.36241600
     H    -14.12296200     -3.92952400    -10.57752400
