11
b3lypvdz=-417.457789991101 
     C     -6.35498000     -2.64759600     -6.67370200
     O     -6.64999900     -3.18604300     -5.64053900
     O     -7.18453000     -1.90537100     -7.44718000
     C     -8.54140300     -1.84921200     -7.01805400
     C     -9.29873600     -3.10207500     -7.43352300
     O     -8.82828200     -4.05614900     -7.99832100
     O    -10.59941400     -2.99038500     -7.08119800
     H     -8.61691900     -1.73161600     -5.92601200
     H     -5.35484800     -2.65627400     -7.15060700
     H     -8.98921400     -0.97586000     -7.51115400
     H    -11.03457500     -3.81121900     -7.37860900
