11
b3lypvdz=-268.226835685242 
     O    -13.69777000     -5.88097300    -12.32974600
     C    -14.10007400     -7.03748500    -13.02362900
     C    -13.75224700     -6.94444300    -14.51720500
     C    -15.58301800     -7.26346600    -12.83510700
     O    -16.23197700     -6.59601500    -12.06967500
     H    -13.59204800     -7.93795900    -12.59242700
     H    -12.66443300     -6.80895500    -14.63812800
     H    -14.05322100     -7.85706700    -15.06885100
     H    -14.25857400     -6.07344900    -14.96919600
     H    -14.50949900     -5.54700800    -11.90781300
     H    -16.01833900     -8.17548100    -13.32902400
