8
b3lypvdz=-228.935787747163 
     O    -19.63966300    -11.34636400    -15.23870700
     O    -18.67247200    -10.68821100    -12.80738000
     C    -18.99645600    -12.03969400    -13.04678700
     C    -19.48484700    -12.26389900    -14.45735800
     H    -18.10262200    -12.67040200    -12.88002700
     H    -19.00170900    -10.19873200    -13.58321400
     H    -19.79226100    -12.37811800    -12.35115500
     H    -19.70327000    -13.32078000    -14.74457200
