12
b3lypvdz=-343.439482877558 
     O    -10.44527600     -3.10340500     -6.93626800
     C    -11.34535100     -4.10701000     -7.32315100
     C    -11.92424900     -3.81466400     -8.69660800
     O    -11.70392400     -2.78036200     -9.29363500
     O    -12.70291900     -4.80786300     -9.15278200
     C    -13.30646800     -4.58375000    -10.44257100
     H    -10.84848100     -5.09469800     -7.34855600
     H    -12.53257800     -4.41586000    -11.20625300
     H    -10.53325400     -2.40935000     -7.61592700
     H    -12.19778000     -4.19973200     -6.61885200
     H    -13.97330300     -3.70877600    -10.41292600
     H    -13.87821800     -5.49383100    -10.66287100
