15
b3lypvdz=-382.729649528551 
     O     -7.17862800     -1.86701600     -7.44867300
     C     -8.53343200     -1.77293000     -7.09893500
     C     -9.26774700     -3.05606900     -7.44787000
     O     -8.71832300     -3.98258000     -8.00996500
     O    -10.54951800     -3.02984800     -7.06022600
     C    -11.36451500     -4.20310500     -7.32915200
     C    -12.43352600     -4.26515500     -6.25702600
     H     -8.66361900     -1.58192100     -6.01558700
     H    -10.71508300     -5.09022500     -7.33562600
     H    -13.01397500     -3.32921000     -6.22516600
     H    -13.12977500     -5.09379900     -6.46482800
     H    -11.98288100     -4.42761300     -5.26445200
     H     -7.08687700     -2.75063500     -7.85169100
     H     -9.03757500     -0.94058800     -7.62905600
     H    -11.80222700     -4.08550500     -8.33474700
