11
b3lypvdz=-268.245988319751 
     C      1.13610700     -2.82132200     -1.94892700
     O      0.94809500     -2.71397900     -3.12320200
     O      0.19947000     -2.74171500     -0.99855500
     C     -1.15115300     -2.46195700     -1.44737600
     C     -1.41948400     -0.97237800     -1.63426100
     H     -1.77885600     -2.87952500     -0.63964800
     H     -0.82084700     -0.56061400     -2.46690000
     H     -2.49418400     -0.81135900     -1.86250900
     H     -1.17250600     -0.41347100     -0.70572900
     H      2.13865600     -2.88186000     -1.45968500
     H     -1.34219800     -3.03331900     -2.37780800
