15
b3lypvdz=-382.73023070813 
     O    -13.71191600     -5.89628500    -12.33398500
     C    -14.08323900     -7.06765900    -13.02676700
     C    -13.74068800     -6.94793200    -14.51440300
     C    -15.56784500     -7.33371500    -12.79550300
     O    -16.26044300     -6.62858700    -12.08838600
     O    -16.01425600     -8.42172200    -13.44154500
     C    -17.40701400     -8.73279200    -13.24588200
     H    -13.54490500     -7.94299000    -12.60607600
     H    -12.67120000     -6.71144600    -14.62224800
     H    -13.95701500     -7.88436100    -15.05065100
     H    -14.31786800     -6.12993000    -14.97374500
     H    -17.61732900     -8.91168700    -12.18057500
     H    -14.51767700     -5.60598200    -11.86768500
     H    -18.03973300     -7.90483900    -13.59885700
     H    -17.59267200     -9.63777000    -13.83609000
