13
b3lypvdz=-381.524477733734 
     C     -4.99317300     -2.85426800     -7.24438400
     C     -6.39476200     -2.75928500     -6.70295300
     O     -6.81315500     -3.29691500     -5.70651900
     O     -7.16532000     -1.94737300     -7.48963200
     C     -8.52443600     -1.83459400     -7.08870900
     C     -9.36059700     -3.04796400     -7.45320500
     O     -8.94745700     -4.02006000     -8.03200000
     H     -5.01638900     -3.28390000     -8.25823300
     H     -8.61782100     -1.65666500     -6.00300200
     H     -4.38987200     -3.48888500     -6.58494900
     H     -4.54789200     -1.85019200     -7.32058800
     H     -8.93132800     -0.96031600     -7.62345900
     H    -10.43239800     -2.95668400     -7.12856600
