13
b3lypvdz=-381.524337915751 
     C      2.48873400     -3.22416100     -1.35018300
     C      1.18389000     -2.70713300     -1.89034700
     O      1.02020300     -2.12092900     -2.93551800
     O      0.16748500     -2.96206500     -1.01159300
     C     -1.11968800     -2.56885600     -1.46997400
     C     -1.67865200     -3.50309300     -2.52738700
     O     -1.14120500     -4.51922900     -2.89516900
     H      3.28444900     -3.03597100     -2.08021800
     H      2.72405500     -2.72394300     -0.39849200
     H     -1.78373800     -2.61219600     -0.59027200
     H      2.40438300     -4.30068500     -1.13906400
     H     -1.11949800     -1.54035000     -1.86726100
     H     -2.66221800     -3.15738900     -2.94102200
