15
b3lypvdz=-382.730145617223 
     O      0.09710500     -2.83939100     -0.97223200
     C     -1.22490800     -2.52268100     -1.34185900
     C     -1.34601100     -1.03059500     -1.66049400
     C     -1.63428700     -3.40288100     -2.51796100
     O     -0.91613800     -4.27641300     -2.96300900
     O     -2.85647600     -3.11681600     -2.99215800
     C     -3.27993600     -3.89884100     -4.12676000
     H     -1.92680200     -2.77048800     -0.51624600
     H     -0.66264700     -0.76574000     -2.48269100
     H     -2.37521100     -0.76496700     -1.94517300
     H     -1.05198900     -0.44571300     -0.77566300
     H     -2.57244100     -3.77248100     -4.95998300
     H      0.34636500     -3.59955000     -1.53018200
     H     -3.33505500     -4.96549300     -3.86132600
     H     -4.26946900     -3.51364900     -4.39976400
