11
b3lypvdz=-417.457574857313 
     C    -17.48649700    -10.28131600    -13.33094800
     O    -16.72654800    -10.98308400    -13.94271100
     O    -18.66032300    -10.68372600    -12.79017300
     C    -19.00360600    -12.04351800    -13.04963200
     C    -19.45048000    -12.24103100    -14.49059600
     O    -19.57923900    -11.37400400    -15.31610500
     O    -19.70464500    -13.55010500    -14.71438100
     H    -18.16276300    -12.72152200    -12.83923300
     H    -20.00178200    -13.61327900    -15.64136700
     H    -17.33846600     -9.20794900    -13.09813300
     H    -19.83775000    -12.28506700    -12.37592000
