17
b3lypvdz=-346.82913842025 
     C    -14.10838600     -7.08049000    -13.03585400
     C    -13.73702400     -6.94050500    -14.51944100
     C    -15.59171900     -7.29135400    -12.80899200
     O    -16.31555000     -6.55704000    -12.17346200
     O    -16.01685300     -8.43203900    -13.41050200
     C    -17.41912700     -8.75842500    -13.25403900
     C    -18.26748100     -8.09813200    -14.32755200
     H    -13.57479600     -7.94315100    -12.60069400
     H    -12.65967100     -6.73878300    -14.62985700
     H    -13.97528800     -7.86015400    -15.07504000
     H    -14.28493900     -6.10849400    -14.99014200
     H    -17.74415200     -8.44902700    -12.24967800
     H    -17.90428400     -8.36412700    -15.33373400
     H    -19.31320400     -8.43700900    -14.23719400
     H    -18.25159700     -7.00252300    -14.21881500
     H    -13.82484600     -6.18499400    -12.46448800
     H    -17.45538700     -9.85525300    -13.33101700
