9
b3lypvdz=-154.947755222039 
     O    -18.66169800    -10.69100000    -12.81373000
     C    -18.99089600    -12.06406700    -13.02491000
     C    -20.05050800    -12.44518800    -12.01016500
     H    -18.09556000    -12.70850900    -12.89640400
     H    -20.94588600    -11.81406600    -12.13263800
     H    -20.34624400    -13.50087400    -12.12927800
     H    -19.66962500    -12.29740400    -10.98519300
     H    -17.98822200    -10.44771200    -13.46395000
     H    -19.37926100    -12.22548000    -14.05343100
