13
b3lypvdz=-381.51323772497 
     C      1.14633300     -2.75413300     -1.88022400
     O      1.03500200     -2.36781700     -3.01486000
     O      0.15597500     -2.83889800     -0.96544000
     C     -1.17172900     -2.50459000     -1.41231300
     C     -1.36092900     -1.02030500     -1.71886900
     C     -1.63901200     -3.43642400     -2.53143500
     O     -1.12964400     -4.49555900     -2.79444300
     H     -1.80344600     -2.77323500     -0.54560800
     H     -0.80024100     -0.71910200     -2.61323200
     H     -2.43001000     -0.80450700     -1.87728300
     H     -1.01608500     -0.41900300     -0.86413700
     H      2.08908900     -3.09014500     -1.40297700
     H     -2.55840500     -3.06978100     -3.06147900
