13
b3lypvdz=-381.52450201583 
     C    -14.15238600     -7.10277400    -13.05640700
     C    -15.54855000     -7.55291800    -12.71298200
     O    -16.11323200     -7.38580700    -11.65876000
     O    -16.13080800     -8.16699700    -13.78668300
     C    -17.43848000     -8.68132200    -13.57165600
     C    -17.40789900    -10.10642300    -13.05271800
     O    -16.40243500    -10.69745300    -12.74862500
     H    -13.57887200     -7.94258700    -13.47467300
     H    -17.99220200     -8.05974400    -12.84677300
     H    -13.66723800     -6.70555300    -12.15713400
     H    -14.19696000     -6.31636800    -13.82715300
     H    -17.96210900     -8.65336500    -14.54041700
     H    -18.42433000    -10.57669000    -12.97261800
