12
b3lypvdz=-343.45738329729 
     O    -16.13035000     -8.17743600    -13.34161300
     C    -17.46874900     -8.61689000    -13.30828600
     C    -18.15186900     -8.40325000    -14.66456900
     C    -17.50639600    -10.07780600    -12.88780600
     O    -16.50920500    -10.72670400    -12.64909900
     O    -18.75261600    -10.57600500    -12.80118000
     H    -18.03575300     -8.05487300    -12.53689500
     H    -17.64577200     -8.99544400    -15.44304500
     H    -19.21343200     -8.69298200    -14.62408300
     H    -18.07812200     -7.34021400    -14.93943900
     H    -15.59762900     -8.95065100    -13.08018800
     H    -18.66090800    -11.50354500    -12.51269700
