11
b3lypvdz=-417.457492685485 
     C      1.18629400     -2.67139300     -1.87336400
     O      1.06108600     -2.16136300     -2.95476100
     O      0.18052300     -2.90474600     -0.99919800
     C     -1.11562300     -2.53971500     -1.46973500
     C     -1.63125000     -3.51675100     -2.51635400
     O     -1.14964000     -4.58991800     -2.77318800
     O     -2.74465600     -3.01578000     -3.10048900
     H     -1.77286100     -2.58611300     -0.58927800
     H      2.13634000     -3.01590700     -1.41833500
     H     -1.12677100     -1.52147300     -1.88610400
     H     -3.04674300     -3.69134100     -3.73589400
