10
b3lypvdz=-342.226593848084 
     C     -6.38190900     -2.67739700     -6.65344700
     O     -6.72162200     -3.24734900     -5.65127400
     O     -7.17184100     -1.89031000     -7.42294600
     C     -8.54448800     -1.83372900     -7.04230900
     C     -9.32996500     -3.04311800     -7.51952500
     O     -8.85129300     -3.98881300     -8.09006400
     H     -8.66425400     -1.73907900     -5.94880700
     H     -5.36701000     -2.69083600     -7.09851900
     H     -8.95823300     -0.93293700     -7.52391400
     H    -10.42628600     -2.97643200     -7.28329600
