11
b3lypvdz=-417.457658163501 
     C     -3.86313700     -2.91343800     -5.14816600
     O     -4.11627000     -1.76241800     -4.91149400
     O     -4.25096500     -3.59214900     -6.25360100
     C     -5.06008000     -2.85189300     -7.16444500
     C     -6.48936500     -2.71304700     -6.65988900
     O     -6.93904700     -3.21661700     -5.66250700
     O     -7.20395600     -1.94508300     -7.51348300
     H     -5.06460600     -3.42524500     -8.10183700
     H     -3.26310700     -3.59356400     -4.51196000
     H     -4.64656200     -1.84994500     -7.35105800
     H     -8.10730400     -1.90050300     -7.14766000
