8
b3lypvdz=-228.935634489391 
     C    -17.34406500     -8.76941000    -13.32060200
     C    -17.49777100    -10.25748400    -13.11255700
     O    -16.53549500    -10.99444800    -13.08202900
     O    -16.00296100     -8.37462600    -13.32993200
     H    -17.90267900     -8.22656600    -12.53441700
     H    -17.87823000     -8.53960400    -14.27350600
     H    -18.54250500    -10.64634500    -13.00984700
     H    -15.49859500     -9.20221700    -13.44531000
