8
b3lypvdz=-228.956934399946 
     C    -17.39987000     -8.75421000    -13.24569100
     C    -15.61449700     -7.29088200    -12.80450100
     O    -16.31885200     -6.55967300    -12.15728000
     O    -16.00490400     -8.42971200    -13.40353700
     H    -17.66456000     -8.83668900    -12.18045100
     H    -18.03173400     -7.98196600    -13.71059000
     H    -17.54333700     -9.71658700    -13.75229200
     H    -14.53364700     -7.13458200    -13.00505800
