14
b3lypvdz=-307.538763283227 
     C     -8.52385800     -1.78830400     -7.15303600
     C     -9.14172500     -0.50961800     -7.73578800
     C     -9.28012900     -3.05877300     -7.48830300
     O     -8.80442700     -4.04560600     -8.00210700
     O    -10.58308800     -2.96960000     -7.11874800
     C    -11.37174900     -4.14734700     -7.35487400
     H     -8.49567900     -1.71192100     -6.05111500
     H     -9.11637100     -0.51667600     -8.83820700
     H    -10.18902300     -0.39940900     -7.41517800
     H     -8.58132200      0.37358900     -7.39120300
     H    -10.97521800     -5.00037200     -6.78313900
     H     -7.49318900     -1.93428400     -7.50636100
     H    -12.38659400     -3.89926000     -7.01795900
     H    -11.37342900     -4.41261900     -8.42338100
