13
b3lypvdz=-381.51452233352 
     C    -15.59815000     -7.28016400    -12.81589800
     O    -16.28074500     -6.57793700    -12.11444800
     O    -16.00181700     -8.39479400    -13.45831400
     C    -17.38002600     -8.77114000    -13.27119900
     C    -18.27453400     -8.10666200    -14.31946100
     C    -17.48266400    -10.28495600    -13.35673100
     O    -16.57945600    -11.03965000    -13.60806100
     H    -17.70862300     -8.45432000    -12.26550900
     H    -17.92033500     -8.34981800    -15.33393300
     H    -19.31418800     -8.45767600    -14.21354700
     H    -18.26621900     -7.01574300    -14.18023300
     H    -14.52520400     -7.11356800    -13.04187400
     H    -18.52793900    -10.65247100    -13.16669200
