15
b3lypvdz=-382.730205907192 
     C    -13.31041200     -5.76365300    -11.18473800
     O    -12.74573400     -6.71818800    -10.68792100
     O    -13.92361000     -5.78012500    -12.37842000
     C    -13.86158000     -7.02325100    -13.10323000
     O    -12.61008600     -4.42396100     -9.32827300
     C    -13.41424000     -4.41144800    -10.48687100
     C    -14.87819200     -4.09529700    -10.15162300
     H    -12.81678800     -7.33699600    -13.24488000
     H    -13.03081700     -3.64543100    -11.18799800
     H    -14.93201500     -3.12551800     -9.63441500
     H    -15.49563300     -4.05630300    -11.06190800
     H    -15.28177800     -4.86478200     -9.47356900
     H    -14.34364100     -6.82382400    -14.06788400
     H    -14.40041500     -7.81343200    -12.55946400
     H    -12.34806100     -5.35559100     -9.20870700
