13
b3lypvdz=-381.516616874609 
     C    -13.50911900     -5.98104700    -11.02022300
     O    -13.61515800     -6.98412400    -10.36522800
     O    -13.67269600     -5.88997100    -12.35871000
     C    -14.10016500     -7.08486200    -13.02739500
     C    -13.76272100     -6.93087800    -14.50814600
     C    -15.59490500     -7.30401700    -12.81882900
     O    -16.30540900     -6.59076700    -12.15799600
     H    -13.57867100     -7.95733600    -12.59463200
     H    -12.67630100     -6.81851200    -14.63884200
     H    -14.09098200     -7.81750700    -15.07300700
     H    -14.25971900     -6.04334900    -14.92857700
     H    -13.23625500     -4.97929800    -10.63195200
     H    -15.99340000     -8.20603200    -13.35566300
