11
b3lypvdz=-268.247048371744 
     C    -15.59286500     -7.32063300    -12.74182800
     O    -16.29216200     -6.56228600    -12.13857700
     O    -16.01057700     -8.42229900    -13.38249800
     C    -17.42036800     -8.75079300    -13.25275600
     C    -18.26316200     -8.09829800    -14.34293200
     H    -17.76056400     -8.44166100    -12.24932100
     H    -17.89224900     -8.38372000    -15.34785600
     H    -19.31741900     -8.43072800    -14.25446800
     H    -18.24257900     -6.99440900    -14.25181700
     H    -14.53897500     -7.11355200    -13.04460300
     H    -17.44818100     -9.85362100    -13.32474500
