11
b3lypvdz=-268.247070484173 
     C     -6.43845800     -2.74523800     -6.68325800
     O     -6.79487000     -3.24709300     -5.66528000
     O     -7.18678400     -1.93853800     -7.44389200
     C     -8.58791900     -1.77780800     -7.07583500
     C     -9.10473700     -0.54857900     -7.80813400
     H     -8.66324200     -1.68500300     -5.97485200
     H     -9.00415200     -0.65590200     -8.91025300
     H    -10.17746900     -0.39594900     -7.56699800
     H     -8.54530800      0.35644000     -7.49087400
     H     -5.37735700     -2.67813200     -7.03048900
     H     -9.13250400     -2.70319700     -7.36323500
