17
b3lypvdz=-346.829000710532 
     C     -5.00933900     -2.88297000     -7.23132300
     C     -4.45289900     -1.62888800     -7.90925300
     C     -6.42574600     -2.75602300     -6.69940500
     O     -6.84181800     -3.30257500     -5.70200500
     O     -7.18685400     -1.95903000     -7.49067400
     C     -8.56498400     -1.77499300     -7.09015100
     C     -9.08282300     -0.54425500     -7.80606200
     H     -5.01577800     -3.72407300     -7.94918900
     H     -3.43336200     -1.81483200     -8.28189600
     H     -5.08205800     -1.32904400     -8.75933600
     H     -4.41046400     -0.78109000     -7.20635100
     H     -8.60815000     -1.67442200     -5.99441400
     H     -9.03264500     -0.66900300     -8.89961000
     H    -10.13207500     -0.35752600     -7.52573700
     H     -8.48805700      0.34021100     -7.52886700
     H     -4.38930700     -3.20981600     -6.38306800
     H     -9.13264200     -2.68197100     -7.35996000
