13
b3lypvdz=-381.524320965446 
     C    -17.39813300     -8.77176600    -13.25578600
     C    -17.46196100    -10.27251400    -13.31991800
     O    -16.61918800    -11.01650800    -13.75868000
     O    -18.64536500    -10.71290000    -12.78928000
     C    -18.96875800    -12.06787500    -13.05911800
     C    -19.51408100    -12.23026900    -14.46871900
     O    -19.54792300    -11.34139600    -15.28286500
     H    -17.61050600     -8.42351100    -12.23315300
     H    -18.09484200    -12.73195600    -12.93922200
     H    -16.41230600     -8.42411300    -13.58651600
     H    -18.18208500     -8.35666600    -13.90784800
     H    -19.74218400    -12.36561700    -12.33271200
     H    -19.88986500    -13.26300800    -14.69648300
