11
b3lypvdz=-417.457709719418 
     C    -13.49027700     -5.99025500    -11.03040100
     O    -13.60347600     -7.00310500    -10.39366800
     O    -13.68058800     -5.87689200    -12.36553900
     C    -14.12563100     -7.06206500    -13.01640900
     C    -15.61090100     -7.29027500    -12.78304800
     O    -16.34057800     -6.58314500    -12.13747600
     O    -16.00389300     -8.41627800    -13.42059000
     H    -13.57027200     -7.94640200    -12.66902500
     H    -13.19365500     -4.99959900    -10.63280600
     H    -13.94204200     -6.91420000    -14.09003000
     H    -16.95708500     -8.51408400    -13.23680800
