12
b3lypvdz=-343.457375078432 
     O     -4.25184000     -3.71516200     -6.49529700
     C     -5.06342400     -2.97996400     -7.38221900
     C     -4.37727900     -1.67627000     -7.81605800
     C     -6.40236000     -2.69773400     -6.71644800
     O     -6.62553600     -2.92632200     -5.54606700
     O     -7.31072800     -2.16338400     -7.55181900
     H     -5.27187700     -3.59145700     -8.28130500
     H     -3.42028100     -1.91960400     -8.30133700
     H     -5.00207800     -1.10643300     -8.52131500
     H     -4.16365900     -1.05102400     -6.93408000
     H     -4.72071200     -3.69627400     -5.64022300
     H     -8.11252500     -1.99857200     -7.02053300
