13
b3lypvdz=-381.524588310995 
     C     -3.19683000     -3.83758200     -4.15990100
     C     -3.90672900     -2.90695500     -5.10706300
     O     -4.13784300     -1.73691700     -4.91601900
     O     -4.27066800     -3.56480700     -6.24538400
     C     -5.05896100     -2.81578000     -7.15856700
     C     -6.52942700     -2.80801600     -6.78207200
     O     -6.98826100     -3.33571700     -5.79982400
     H     -2.49832000     -4.48938400     -4.70351500
     H     -4.94361400     -3.29598000     -8.14467900
     H     -2.67069900     -3.24640500     -3.39973600
     H     -3.94441400     -4.47613600     -3.66144000
     H     -4.70932800     -1.77126400     -7.23184400
     H     -7.17610600     -2.25135600     -7.51235500
