15
b3lypvdz=-382.730267916177 
     O     -4.21924200     -3.52512600     -6.32263300
     C     -5.03847300     -2.94834600     -7.31218600
     C     -4.39138600     -1.67524500     -7.86880900
     C     -6.41582400     -2.67275400     -6.71714000
     O     -6.68771900     -2.90592200     -5.55606800
     O     -7.27563900     -2.14908900     -7.60296600
     C     -8.58311400     -1.82771200     -7.08552200
     H     -5.18817000     -3.66539200     -8.14584600
     H     -3.40605600     -1.92820200     -8.28898700
     H     -5.01104400     -1.22027500     -8.65611200
     H     -4.23806000     -0.94791200     -7.05523000
     H     -8.50384400     -1.08224100     -6.27950800
     H     -4.77785000     -3.57866900     -5.52451700
     H     -9.14341400     -1.41715800     -7.93424100
     H     -9.07346600     -2.72875700     -6.68853600
