8
b3lypvdz=-79.764180945858 
     C      2.46608600     -3.25643100     -1.37480600
     C      2.39461400     -4.75346900     -1.05049400
     H      3.22582900     -3.04726400     -2.14633500
     H      2.73030900     -2.66578100     -0.48129800
     H      1.63487200     -4.96263600     -0.27896500
     H      3.36127800     -5.12972700     -0.67417000
     H      2.13039000     -5.34411900     -1.94400200
     H      1.49942200     -2.88017300     -1.75113100
