13
b3lypvdz=-381.524496964417 
     C     -8.53447400     -1.78841400     -7.04924200
     C     -9.26061900     -3.03538100     -7.47830800
     O     -8.85327900     -3.87725900     -8.24297700
     O    -10.48297100     -3.10978700     -6.86970100
     C    -11.33682600     -4.13225300     -7.36047300
     C    -11.95582900     -3.75638000     -8.69601100
     O    -11.73483900     -2.72297900     -9.27779600
     H     -8.37035800     -1.79729700     -5.95999700
     H    -10.80601100     -5.09400200     -7.46741800
     H     -7.57362500     -1.72691000     -7.57281800
     H     -9.15508000     -0.91115000     -7.28804900
     H    -12.14441500     -4.25500100     -6.62009600
     H    -12.65867400     -4.52948700     -9.10551300
