14
b3lypvdz=-307.5442028171 
     C      2.45379800     -3.18828100     -1.38274300
     C      1.10167400     -2.86630900     -1.97171500
     O      0.88040500     -2.65163300     -3.14259800
     O      0.14497900     -2.84459700     -1.01043800
     C     -1.18924000     -2.49818800     -1.45883500
     C     -1.34981400     -0.99422000     -1.61041800
     H      3.21434200     -3.13202900     -2.17118000
     H      2.68904200     -2.48137600     -0.57302400
     H     -1.85026100     -2.90038800     -0.67805800
     H     -0.70414500     -0.61315400     -2.41469600
     H     -2.39450000     -0.75111300     -1.86644400
     H     -1.09182200     -0.47680900     -0.67205100
     H      2.44350900     -4.19582500     -0.93713400
     H     -1.39146700     -3.01537900     -2.40876600
