17
b3lypvdz=-346.829044899399 
     C     -1.19813700     -2.49723600     -1.39931600
     C     -1.35139400     -1.00588300     -1.70918900
     C     -1.64555800     -3.44854500     -2.49395800
     O     -1.11996100     -4.51111700     -2.74091000
     O     -2.73665500     -2.97730300     -3.14702100
     C     -3.29783800     -3.82334100     -4.17848800
     C     -4.19302900     -4.89827000     -3.58320300
     H     -1.79473100     -2.75936500     -0.50599300
     H     -0.78278000     -0.72260200     -2.60964600
     H     -2.40464200     -0.73914800     -1.88140900
     H     -0.97217800     -0.39956800     -0.87127800
     H     -2.47946800     -4.26868100     -4.76502800
     H     -4.96551100     -4.44791800     -2.93842000
     H     -4.69597800     -5.46219300     -4.38670700
     H     -3.59748600     -5.60591400     -2.98627700
     H     -0.15639100     -2.76314000     -1.16547800
     H     -3.86886300     -3.12897500     -4.81267700
