13
b3lypvdz=-381.516382704824 
     C    -17.48769500    -10.27245700    -13.35112000
     O    -16.71880600    -10.96512000    -13.96320400
     O    -18.64425400    -10.68815800    -12.78822700
     C    -18.98865700    -12.06280300    -13.01995600
     C    -20.07682800    -12.43884900    -12.01821000
     C    -19.45617500    -12.27155900    -14.45775900
     O    -19.54559400    -11.39960600    -15.28351700
     H    -18.09596800    -12.69805800    -12.87726900
     H    -20.95994800    -11.79312400    -12.14088500
     H    -20.38575300    -13.48749800    -12.15599900
     H    -19.69398000    -12.32221200    -10.99295600
     H    -17.35738300     -9.19326300    -13.13309300
     H    -19.73055900    -13.33669300    -14.68720500
