11
b3lypvdz=-268.265586908857 
     C     -5.01741100     -2.89843900     -7.24844200
     C     -4.41342900     -1.64185800     -7.90972000
     C     -6.40957500     -2.71382000     -6.67724100
     O     -6.82997300     -3.25538000     -5.68139900
     O     -7.18456200     -1.89971300     -7.44590200
     H     -5.08305900     -3.72070600     -7.99157700
     H     -3.39364800     -1.85536400     -8.28009100
     H     -5.02257100     -1.30024800     -8.76443200
     H     -4.34789500     -0.80488100     -7.18964700
     H     -4.38939200     -3.27147000     -6.42269300
     H     -8.04568600     -1.86591800     -6.99315700
