12
b3lypvdz=-343.439439175609 
     O     -4.23070100     -3.64534400     -6.33616300
     C     -5.01220400     -2.90941100     -7.23658600
     C     -6.42121900     -2.72781300     -6.70183800
     O     -6.76655500     -3.16019400     -5.62079700
     O     -7.21289400     -2.04498900     -7.54027300
     C     -8.55757200     -1.80553000     -7.07840800
     H     -5.07450100     -3.41105100     -8.22163000
     H     -8.54878100     -1.15301000     -6.19211000
     H     -4.82048400     -3.82439300     -5.57958400
     H     -4.58679100     -1.90266900     -7.41980800
     H     -9.07054600     -1.31204700     -7.91302100
     H     -9.05305300     -2.75254900     -6.81938300
