13
b3lypvdz=-381.516639442358 
     C     -6.39515900     -2.67553500     -6.66487000
     O     -6.73350100     -3.19446300     -5.63422900
     O     -7.17712400     -1.92174900     -7.47105400
     C     -8.55892000     -1.80797900     -7.09863900
     C     -9.11127600     -0.55892100     -7.77926000
     C     -9.32429600     -3.06476100     -7.50227400
     O     -8.83204000     -4.02966500     -8.02803200
     H     -8.64514300     -1.72822200     -5.99918800
     H     -8.95995800     -0.61562200     -8.86897300
     H    -10.18800900     -0.44833500     -7.57418600
     H     -8.59229100      0.33223900     -7.39773000
     H     -5.38014900     -2.71873000     -7.10846300
     H    -10.41953300     -3.01305700     -7.25780100
