12
b3lypvdz=-343.456826100898 
     O     -2.40269900     -3.45582600     -3.17532100
     C     -3.26815100     -4.07254600     -4.10129300
     C     -4.63544200     -4.40255100     -3.48098200
     C     -3.44758200     -3.15900900     -5.30589600
     O     -3.24964400     -1.96328700     -5.27493200
     O     -3.88177900     -3.81447500     -6.40040200
     H     -2.78765900     -5.00401300     -4.44692100
     H     -5.13343200     -3.47681600     -3.14721400
     H     -5.29152200     -4.92198100     -4.19751500
     H     -4.48617500     -5.04610800     -2.60114600
     H     -2.49532200     -2.49780600     -3.32790600
     H     -4.01399400     -3.13908300     -7.09277100
