15
b3lypvdz=-382.729660870656 
     O     -4.20851600     -3.07986900     -6.26533600
     C     -5.15817600     -3.03119000     -7.29510500
     C     -6.52096500     -2.63599900     -6.75653800
     O     -6.69275400     -2.33477500     -5.59291000
     O     -7.46779500     -2.63361100     -7.70432700
     C     -8.76546800     -2.09099400     -7.33393700
     C     -8.78378900     -0.58106400     -7.49698800
     H     -5.24636800     -4.00813400     -7.80745600
     H     -8.99329300     -2.38640800     -6.29991200
     H     -8.48582200     -0.29370400     -8.51888400
     H     -9.80239000     -0.19995400     -7.31316800
     H     -8.10617200     -0.09082800     -6.78189900
     H     -4.66933300     -2.72406100     -5.48268300
     H     -4.88214500     -2.28944100     -8.07300300
     H     -9.46651500     -2.57706900     -8.02575400
