15
b3lypvdz=-382.730366247954 
     O    -10.47891700     -3.08333100     -6.94256900
     C    -11.34514000     -4.13171600     -7.31020100
     C    -12.43431100     -4.32540600     -6.25228400
     C    -11.92922200     -3.83242200     -8.68861300
     O    -11.64418700     -2.83160100     -9.31789200
     O    -12.74780900     -4.79553100     -9.13818900
     C    -13.29669800     -4.57702900    -10.45262800
     H    -10.77927100     -5.08145500     -7.41341000
     H    -13.02938400     -3.40322800     -6.15315800
     H    -13.10164700     -5.16104000     -6.51042400
     H    -11.95387000     -4.53112300     -5.28358600
     H    -12.49023700     -4.52075300    -11.19933300
     H    -10.48420800     -2.46943000     -7.70082900
     H    -13.86977000     -3.63837800    -10.48094100
     H    -13.94932800     -5.43695700    -10.64374300
