10
b3lypvdz=-193.034009686196 
     C     -4.43535200     -1.64859900     -7.88893700
     C     -6.40394300     -2.72195800     -6.69653600
     O     -6.80978700     -3.22720100     -5.67602900
     C     -5.01739000     -2.92744200     -7.26941700
     H     -3.43957300     -1.83917000     -8.31803700
     H     -5.07763400     -1.26234700     -8.69842400
     H     -4.33287300     -0.85181800     -7.13345800
     H     -5.10458300     -3.70925300     -8.04926600
     H     -7.07477600     -2.05382300     -7.30661800
     H     -4.37648900     -3.33378800     -6.47077900
