10
b3lypvdz=-193.03353603062 
     C    -14.10530300     -7.06823800    -13.02113200
     C    -13.75566400     -6.94915100    -14.51520800
     C    -15.58727000     -7.27622300    -12.80644800
     O    -16.29566500     -6.57004900    -12.12767800
     H    -13.58015700     -7.94250700    -12.58956600
     H    -12.66957200     -6.83090100    -14.65590500
     H    -14.06976400     -7.84639300    -15.07611400
     H    -14.25382300     -6.07926900    -14.97272600
     H    -13.79609300     -6.17506600    -12.45507100
     H    -16.01978900     -8.16740300    -13.34225300
