9
b3lypvdz=-154.948593158276 
     C    -17.39428100     -8.73402600    -13.25046800
     C    -18.26847600     -8.10000700    -14.32654700
     O    -16.01256100     -8.43601600    -13.41882100
     H    -17.74669500     -8.43177900    -12.24141900
     H    -17.91705700     -8.39730800    -15.32898000
     H    -19.32397700     -8.40458700    -14.21765700
     H    -18.22652400     -6.99606300    -14.26819400
     H    -17.46409000     -9.83365700    -13.30423400
     H    -15.91603800     -7.47445600    -13.35287900
