11
b3lypvdz=-268.225900525783 
     O     -7.14494000     -1.88793500     -7.43866100
     C     -8.50890000     -1.75924800     -7.10908400
     C     -9.15167600     -0.54542000     -7.79847500
     C     -9.25923800     -3.02298000     -7.48629900
     O     -8.75793100     -3.88178700     -8.17546900
     H     -8.58911100     -1.63393000     -6.00948300
     H     -9.08402200     -0.65100100     -8.89528900
     H    -10.21354900     -0.42054000     -7.52048700
     H     -8.60578800      0.36584800     -7.50999800
     H     -7.10629100     -2.61456000     -8.08770100
     H    -10.30595500     -3.12124800     -7.09715500
