7
b3lypvdz=-153.749786780236 
     O    -19.62767700    -11.35766700    -15.26589300
     C    -18.99704100    -12.05948500    -13.04576800
     C    -19.47857100    -12.24791700    -14.46327900
     H    -18.07040900    -12.64015000    -12.89046900
     H    -18.81555900    -10.99470900    -12.83889400
     H    -19.74420800    -12.46197400    -12.33903500
     H    -19.70203300    -13.31359800    -14.74656100
