14
b3lypvdz=-307.538667583084 
     C     -1.17232600     -2.49956100     -1.39899800
     C     -1.38073200     -1.01323400     -1.70298700
     C     -1.63036900     -3.45613200     -2.48379600
     O     -1.09261300     -4.50564500     -2.75598300
     O     -2.74614200     -3.00638500     -3.10984500
     C     -3.25013600     -3.84242000     -4.16202400
     H     -1.72139900     -2.77947900     -0.48148600
     H     -0.87274700     -0.72082300     -2.63629000
     H     -2.44838900     -0.77332600     -1.81509700
     H     -0.96950800     -0.39320000     -0.89107600
     H     -2.50962100     -3.93800400     -4.97104900
     H     -0.11323200     -2.73188300     -1.21169200
     H     -3.49306100     -4.84672300     -3.78241600
     H     -4.15512400     -3.34278300     -4.52996200
