14
b3lypvdz=-307.544241174411 
     C     -1.16745200     -2.51346800     -1.41901100
     C     -1.62989200     -3.48637900     -2.47701800
     O     -1.13791700     -4.56947200     -2.69968900
     O     -2.69476700     -2.98429700     -3.15111200
     C     -3.26293600     -3.82674400     -4.18090000
     C     -4.20175800     -4.86509100     -3.58847300
     H     -1.91584900     -2.46763900     -0.61144700
     H     -2.44876400     -4.30603900     -4.74653700
     H     -4.97440700     -4.38122200     -2.96879700
     H     -4.70265300     -5.42913400     -4.39293300
     H     -3.63996800     -5.57811900     -2.96573200
     H     -0.20836100     -2.84935900     -1.00641000
     H     -1.07452900     -1.50244400     -1.84326600
     H     -3.80024900     -3.12599200     -4.83717400
