39
cc2631gd=-990.9331151702 
O           1.23836630     -3.67666026      0.57228939
H           2.68061852     -2.50923278      0.53474354
H           1.16751710     -4.32644312      2.33172692
O           4.95647446      0.12768358      0.41892833
H           4.55118766      0.84157043     -1.30710872
H           6.72199923     -0.36209344      0.34676110
O          -0.26825842      5.18591666     -3.05461886
H          -0.42888897      6.91316984     -3.64543690
H          -0.64261408      5.25390927     -1.19444149
O          -1.26333166      5.32683896      1.87438276
H           0.22109839      4.72708557      2.80681525
H          -2.60055487      4.12529719      2.34227561
O          -0.75857223     -0.24416625      6.86664335
H           0.58217646      0.87067798      6.25220982
H          -2.22151160      0.21689165      5.82613511
O          -4.47979094      1.30684108      3.28316617
H          -6.27123783      1.45536816      3.63972366
H          -4.33377412      0.06781874      1.85703077
O           0.72246685     -1.73221385     -6.63746224
H           1.06131846     -2.34363836     -8.33137696
H           0.18046323     -3.25025861     -5.64809461
O           3.75588810      1.88124535     -4.08342680
H           2.87267926      0.56548214     -5.05223576
H           2.48682084      3.21760582     -3.84342145
O          -0.93324405     -5.59643406     -3.75426318
H           0.16769454     -5.41945097     -2.26478376
H          -2.53154488     -4.94869658     -3.09559946
O           0.96535845     -4.91670723      5.56044837
H           0.31040230     -3.27347307      6.19487099
H          -0.30352043     -6.14657400      6.04088927
O          -3.34673086      1.17819498     -4.75462559
H          -2.12507564      0.29528077     -5.82794148
H          -2.48491626      2.75420818     -4.29722168
O          -3.57524057     -1.85119959     -0.56407535
H          -1.79979800     -2.22985582     -0.13087366
H          -3.51805328     -0.71319782     -2.06030875
O           2.88045069      2.91314286      4.29703425
H           4.19564085      3.83973554      5.17387476
H           3.74705116      1.92674830      2.96415063
