33
cc2631gd=-838.474095585557 
O           2.84970860     -4.33596726      0.19443343
H           3.50528061     -2.75106214      1.01417580
H           4.20217285     -5.56159069      0.35791199
O          -1.64311640     -4.33628886      3.02692210
H          -0.08447676     -4.73437799      2.09640941
H          -2.80391822     -3.75406832      1.69648652
O           0.24371042      4.11544644     -3.70241407
H           0.76382766      2.72622833     -4.87603388
H           0.08019147      5.60108586     -4.76331261
O          -1.67827488      3.96056053      3.81912254
H          -1.23774557      2.38578603      4.73135907
H          -2.38237392      5.09516691      5.07327892
O           1.49218943      0.34788562     -6.84321337
H           0.85779853     -1.22372441     -6.01163035
H           3.29184551      0.06893512     -7.04031460
O           4.34795095     -0.29980300      2.78089389
H           3.13087155     -0.32529377      4.17224231
H           4.08052998      1.37772785      1.99484090
O           2.94781556      4.40379517      0.95991007
H           2.24162605      4.36240237     -0.75137334
H           1.46414334      4.64252561      2.03391408
O          -0.09212167     -3.74680283     -4.25317975
H          -1.68823942     -3.35641480     -3.39570940
H           1.08850899     -4.03935729     -2.85430628
O          -4.25531391     -2.33597277     -1.13689901
H          -4.20847192     -0.44269453     -1.02664353
H          -5.97831846     -2.75417447     -1.60034100
O          -0.12238717     -0.51685156      5.87188812
H          -0.26894892     -1.05355903      7.61824453
H          -0.81005977     -1.96357543      4.83614664
O          -4.03484306      2.69614716     -0.85258964
H          -2.67476605      3.25355163     -1.98936308
H          -3.44755855      3.20604504      0.82891739
