54
cc2631gd=-1372.080075864978 
O          -2.64362989      4.86449709     -3.10498441
H          -3.16478802      6.57872123     -3.49456898
H          -0.73244747      4.92882786     -3.07801466
O           0.24898418     -4.65521176     -6.96050062
H           0.18411227     -3.22986804     -8.15192241
H          -1.32288152     -4.49037526     -5.98997390
O          -2.54184061     -2.21304665      0.62203497
H          -0.66997841     -2.06228851      0.57211610
H          -2.87295037     -3.21984644      2.15652615
O           2.31971879      5.08544799     -3.03324321
H           3.07223518      3.94704600     -4.31555649
H           2.97269444      4.46743046     -1.41407311
O           4.28068808      2.83625176      1.46104939
H           3.62970887      3.34582584      3.17661609
H           6.08641358      3.14961624      1.52731095
O           2.62863549     -2.05945509      0.69296079
H           3.29773616     -0.32993718      0.92430536
H           3.29665177     -2.64265615     -0.95049510
O           4.17323523     -3.28821256     -4.12613585
H           5.51921486     -4.48391330     -4.47189132
H           2.68432888     -3.90786847     -5.13340843
O          -2.72689776     -4.56130801      5.29121041
H          -3.89715177     -5.82036066      5.92728248
H          -2.82895070     -3.10799847      6.51525313
O          -2.63912913     -0.74278822      8.55636741
H          -2.89579733      0.89097266      7.70542987
H          -0.84194304     -0.71330884      9.01717230
O           2.65831807     -4.55771699      5.34451285
H           2.91919040     -3.85278422      3.64219338
H           0.85999382     -5.00433935      5.35753044
O          -4.46289648      2.68507195      1.38919662
H          -3.87371465      3.61147642     -0.11042309
H          -3.90780768      0.93544984      1.09521132
O          -2.68887358      3.87478743      5.90595620
H          -3.75958556      5.21705934      6.54729511
H          -3.32496106      3.52192660      4.14625365
O           2.68346742     -0.74212637      8.65227876
H           3.80159600     -1.17605608     10.03771704
H           2.82371598     -2.17227455      7.41299414
O          -4.11313252     -3.36108369     -4.10828826
H          -3.61298456     -3.06086870     -2.31929369
H          -5.65229827     -4.35287081     -4.03636883
O           4.24040142      1.65360083     -6.46811019
H           2.92171078      1.29891988     -7.71882221
H           4.48406071      0.02482564     -5.62733081
O          -4.04009926      1.32336161     -6.80670257
H          -3.64191507      2.62992239     -5.54304663
H          -4.33806512     -0.21741067     -5.82205219
O           0.05017061      0.02402793     -9.43340906
H          -1.48752015      0.65287261     -8.51489812
H          -0.26523736      0.35766608    -11.20737100
O           2.62987250      3.93990072      6.06450351
H           2.84158709      2.40216244      7.08180747
H           0.79136348      4.20175971      6.02958493
