63
cc2631gd=-1600.778909191742 
O           3.76738953     -3.67234918     -0.45118025
H           4.68563131     -3.62191765      1.16790791
H           2.44890916     -2.35546865     -0.24792885
O           1.06677092     -3.73028423      6.51643934
H           0.24786127     -2.06533904      6.39495303
H           0.00659631     -4.79938837      5.42894022
O           6.05718997      2.50896644      3.47691375
H           5.92415626      0.69653682      3.84866277
H           6.38148535      2.62555947      1.65452952
O          -0.70436729      3.25539998     -6.65976898
H          -2.44869561      3.24934508     -6.02297474
H           0.26991066      3.95566192     -5.22783885
O           1.65400222      4.39915977     -2.17484992
H           1.05529270      2.84433460     -1.32444337
H           3.50808484      4.25334144     -2.12713092
O           5.50769327     -2.77566816      4.39314570
H           6.81661526     -3.62050684      5.35863929
H           3.86913829     -3.19294850      5.26975565
O           0.07926802     -7.31372989     -1.10319981
H          -0.64139525     -6.67075171     -2.67981650
H           1.63701453     -6.31173965     -0.89332583
O          -0.97884702      0.88632047      5.12293213
H          -2.80149552      1.27618030      5.15138706
H          -0.05433872      2.47472165      5.44854948
O          -0.87533883      7.44360812      1.34043647
H           0.04707587      6.85772585      2.83105003
H           0.11737778      6.74180214     -0.06163076
O           1.40458014     -1.17057492     -7.40944806
H           1.85501337     -1.13130022     -9.18767556
H           0.51849535      0.50189177     -7.09955072
O           6.69662796      2.99390409     -1.83753236
H           8.18002481      3.86687984     -2.46631108
H           6.52900284      1.42416022     -2.89642255
O           6.01423297     -1.22096087     -4.49285547
H           4.51110165     -1.10840023     -5.57186088
H           5.47399557     -2.36412108     -3.12340881
O          -1.78079902     -4.82224391     -5.62914129
H          -2.46144765     -5.77330285     -7.03982155
H          -0.53276669     -3.62524890     -6.36291497
O          -4.32255217     -1.69222370     -2.27620465
H          -4.94236262     -0.15401953     -3.13739261
H          -3.71520112     -2.85198744     -3.59524308
O           0.05518364     -0.05184284      0.09908591
H          -1.53926794     -0.64616896     -0.68103106
H          -0.33420485      0.24530642      1.90959062
O          -6.04502628      1.44234757      4.25120298
H          -6.31390265     -0.31157832      3.56443590
H          -7.41540743      1.72911526      5.43396596
O           2.07849920      5.04830003      5.25177641
H           3.59189724      4.17908385      4.50627688
H           2.70586221      5.90937857      6.74297080
O          -5.42246892      2.97899794     -4.15962529
H          -5.33821260      3.87703424     -2.46740792
H          -6.99907230      3.54049954     -4.90833600
O          -6.52044660     -3.14889408      2.26036307
H          -5.15171909     -4.27459652      2.81714677
H          -6.07437679     -2.79658786      0.49163730
O          -5.40885914      5.12151207      0.31125174
H          -3.84986877      6.05067697      0.78320963
H          -5.69161952      3.89275860      1.66675039
O          -2.30921435     -6.34387901      3.24834711
H          -2.77927302     -8.00993929      3.85456067
H          -1.51049405     -6.66332865      1.55801909
