48
cc2631gd=-1219.615390396124 
O          -5.65053428     -2.59104219     -1.43045829
H          -4.47961644     -3.65955805     -0.46368715
H          -5.70310038     -0.98662600     -0.50121921
O          -3.45679173     -1.68613995     -5.89925373
H          -4.63828054     -2.26523133     -7.17415205
H          -4.29688920     -2.04224213     -4.24033917
O           1.65537386     -3.37780184     -5.89060933
H          -0.15621061     -3.00386669     -6.00115748
H           2.45001465     -1.70873140     -6.02130215
O          -1.33755544     -3.49352814      5.90139313
H           0.43051133     -2.94945618      6.01878452
H          -2.30015006     -1.91464918      6.03026265
O           5.60800903     -2.10374441      1.20868517
H           7.25359965     -2.90414673      1.07350244
H           4.42209014     -3.28646766      0.24576673
O           3.60790328     -1.38269390      5.87998168
H           4.42755938     -1.68107757      4.21254291
H           4.83932036     -1.87919024      7.14304584
O           2.69150461     -5.23077481     -1.19372012
H           1.02779282     -5.38125925     -0.38800008
H           2.34296504     -4.65520581     -2.95006981
O           2.06789486      5.47944424      1.30797975
H           2.59145022      7.21257057      1.59918648
H           1.81297316      4.74968468      3.03687705
O          -1.65777081      3.38379068     -5.88539731
H           0.15373021      3.01009877     -5.99799180
H          -2.45240988      1.71482206     -6.01763909
O           1.33990329      3.48915940      5.90555080
H          -0.42816322      2.94488204      6.02321678
H           2.30267983      1.91026892      6.03188502
O           3.45454653      1.69224776     -5.89945420
H           4.63612211      2.27332939     -7.17341090
H           4.29462678      2.04634906     -4.24005315
O          -2.06705606     -5.47982914      1.30237578
H          -2.59067193     -7.21302179      1.59313290
H          -1.81180635     -4.75088650      3.03163005
O          -2.69253912      5.23043041     -1.18566309
H          -2.34372635      4.65696253     -2.94267140
H          -1.02885971      5.38143729     -0.37995128
O           5.64807014      2.59160378     -1.42961832
H           4.47779253      3.65927155     -0.46119462
H           5.70098348      0.98592370     -0.50252085
O          -5.60662855      2.10073391      1.21604632
H          -7.25240121      2.90103263      1.08241739
H          -4.42150764      3.28400505      0.25278014
O          -3.60428889      1.37827709      5.88506138
H          -4.42552512      1.67693124      4.21825980
H          -4.83553954      1.87193809      7.14944920
