12
b3lypvdz=-211.217912530546 
N           2.01519400      0.73574900     -0.32968800
C           0.63470200      0.99973000     -0.40309600
C          -1.44394600     -0.34576300      0.00633800
C           0.12440600      2.24551200     -0.51218400
C          -0.19114700     -0.22646100     -0.45290600
H           2.57288300      1.56746000     -0.14547500
H           2.25155300      0.00866700      0.34448300
H          -1.95918600      0.49115100      0.48496500
H          -1.99332100     -1.28599400     -0.08492400
H          -0.93221800      2.39676100     -0.73104400
H           0.76702100      3.12693100     -0.44574000
H           0.30895900     -1.09564200     -0.89773000
