11
b3lypvdz=-322.36878546415 
O          -4.05076900      2.38657900     -0.13838000
O          -5.09582900     -1.43356000      2.49876400
N          -4.31283400      0.19087700      0.46066300
C          -5.65896500      0.32440000      0.96228300
C          -3.59655400      1.26854600      0.02255400
C          -5.91085400     -0.62875600      2.10698600
H          -3.81549800     -0.64723900      0.75099200
H          -6.42818200      0.11336400      0.18968200
H          -5.84092200      1.36649800      1.28332900
H          -2.53510600      0.99969000     -0.19206300
H          -6.92988700     -0.55739800      2.56419100
