14
b3lypvdz=-324.524501454235 
O          -4.17848800      2.40236600     -0.04749700
N          -4.41254000      0.17761500      0.35696100
C          -3.66810600      1.29649200      0.08789400
C          -2.20205000      1.05140700     -0.03064600
C           0.87194100      0.95021000     -0.39759500
C          -1.36524800      2.08170400     -0.25574100
C           0.09096300      2.04296200     -0.40310400
H          -5.40275000      0.29687000      0.53281000
H          -3.98206900     -0.71027800      0.57721600
H          -1.83127100      0.02644800      0.07590100
H           1.95434700      1.03172300     -0.51985500
H           0.46265000     -0.05715400     -0.28064300
H          -1.85150700      3.06028500     -0.33431200
H           0.56952900      3.01864800     -0.53939000
