8
b3lypvdz=-228.981427817322 
C          -7.94941300     -1.25385800     -1.82092400
O          -8.18176400     -2.54194100     -2.18914000
O          -8.50276800     -0.31731700     -2.34723600
C          -6.93495500     -1.17622600     -0.70786100
H          -8.83674200     -2.49295900     -2.90984300
H          -6.78459400     -0.12933600     -0.41772400
H          -5.98145900     -1.61702000     -1.04079800
H          -7.28170500     -1.76244400      0.15782500
