13
b3lypvdz=-286.447568283637 
O          -4.06749200      2.34755600     -0.09269700
N          -4.28393200      0.18619200      0.60286300
C          -5.69037200      0.32906300      0.93900100
C          -3.56005700      1.25471000      0.13947600
C          -2.10462300      1.02263700     -0.12026900
C          -1.48646200     -0.15825100     -0.22983900
H          -3.77557500     -0.58361100      1.01979200
H          -6.19330700      0.90136000      0.14802500
H          -6.14929800     -0.66768200      1.01174500
H          -5.84818700      0.86783000      1.89194600
H          -1.55853700      1.95614400     -0.28325600
H          -0.41900800     -0.21773900     -0.45718800
H          -2.01434900     -1.11121000     -0.12629800
