12
b3lypvdz=-269.162119904229 
O          -4.17808600      2.24548000      0.14379100
C          -3.51555300      1.23471100      0.05272400
C          -2.02784000      1.19891300     -0.14223000
C          -1.39677300      2.38104000     -0.28782200
C          -1.40800500     -0.13789900     -0.15416400
C          -0.10314100     -0.43263400     -0.23971500
H          -3.99800600      0.22507000      0.12221600
H          -0.31907600      2.46150800     -0.44338600
H          -1.98943500      3.29784400     -0.25897600
H          -2.11873700     -0.96971100     -0.07235300
H           0.67014700      0.33687600     -0.31305900
H           0.23870400     -1.46969900     -0.23372700
