14
b3lypvdz=-266.559641592601 
N           8.31202200      0.08045000      0.20359000
N           6.72541700      1.74764900     -0.03371500
C           2.87961600      1.93562200     -0.33995300
C           4.26260800      1.39925300     -0.15683400
C           7.06276300      0.51716100     -0.15845000
C           5.38223800      2.14254300     -0.21900900
H           8.64164100     -0.78539400     -0.20645800
H           9.01629800      0.79401400      0.35780000
H           2.35508400      1.48955800     -1.20615800
H           2.20940300      1.71448000      0.51202600
H           2.89331000      3.02903200     -0.48127800
H           4.36192500      0.33036900      0.07070900
H           6.41628200     -0.27758900     -0.57361200
H           5.30329400      3.22235300     -0.39165800
