13
b3lypvdz=-232.31960796741 
O          -5.10735300     -1.37356500      2.57030100
C          -5.66297200      0.30808300      0.92429700
C          -6.80171500      0.20570400     -0.10738100
C          -6.92151000     -1.18453700     -0.74290100
C          -5.89069500     -0.55885000      2.14069200
H          -4.69049900      0.03532100      0.48191900
H          -5.59398100      1.35261800      1.28698900
H          -6.62644700      0.95874100     -0.89414500
H          -7.75826500      0.48467200      0.37332700
H          -7.70759900     -1.20466500     -1.51494100
H          -5.97349500     -1.48481600     -1.22176600
H          -7.16940300     -1.95488400      0.00623800
H          -6.87986300     -0.39282200      2.65337200
