16
b3lypvdz=-325.739013038151 
O          -4.15220400      2.45208200      0.04384200
N          -4.32245800      0.23559800      0.52688800
C          -5.71119400      0.31958500      0.96683400
C          -6.72836400      0.19130900     -0.16884300
C          -3.62246800      1.34995600      0.14563700
C          -2.16408400      1.11675900     -0.10031600
C          -1.34145200      2.13995200     -0.34251000
H          -3.81849500     -0.63113500      0.66799000
H          -5.87507300     -0.46640100      1.72215500
H          -5.83665600      1.29540600      1.46263700
H          -6.63156600     -0.77460500     -0.69377800
H          -6.58515100      0.99824400     -0.90438400
H          -7.75348600      0.26535300      0.23290400
H          -1.78253600      0.08964300     -0.05848000
H          -0.27174100      1.98955200     -0.50851800
H          -1.74107100      3.15750200     -0.37965800
