12
b3lypvdz=-211.219054297493 
N           2.17298900      0.73837300     -0.53144800
C          -2.29271300      1.03387000     -0.13137700
C           0.80339600      0.84767100     -0.32496600
C          -1.52792700     -0.07458800     -0.12468400
C          -0.07130100     -0.17842600     -0.22651200
H           2.72476100      1.49486900     -0.13800300
H           2.57028300     -0.17166400     -0.31003700
H          -3.37908400      0.96161000     -0.03851600
H          -1.87427600      2.04062800     -0.22707500
H           0.45054600      1.88531600     -0.31821400
H          -2.04042700     -1.03900000     -0.02716100
H           0.33215200     -1.19905700     -0.23150700
