14
b3lypvdz=-266.539112608682 
N           1.93906900      0.82468900     -0.11971300
N           4.69807400      0.18015800     -0.26798700
C           2.92251500      1.82148600     -0.51686300
C           4.36558000      1.37342000     -0.56993400
C           6.04962900     -0.19638300     -0.23962900
C           7.02399100      0.41291500      0.45341500
H           2.25681000      0.40570800      0.75990400
H           1.99798700      0.04342100     -0.77923700
H           2.86676300      2.68877300      0.17065600
H           2.64808000      2.23804100     -1.50542100
H           5.11732000      2.12745100     -0.88373700
H           6.25292000     -1.13345800     -0.77195200
H           8.03228600     -0.00717700      0.46912300
H           6.83117600      1.30865600      1.05077500
