10
b3lypvdz=-193.034358886477 
O          -5.07899700     -1.39656900      2.50983800
C          -5.88249700     -0.59001000      2.10278100
C          -5.66259900      0.33522600      0.92843300
C          -6.78144400      0.21810100     -0.11723500
H          -6.88656300     -0.48313700      2.60081100
H          -4.67419300      0.11404300      0.49556500
H          -5.63897800      1.36841000      1.32651200
H          -6.82356500     -0.79844900     -0.54180400
H          -6.61547500      0.92150700     -0.94721800
H          -7.76879100      0.44217700      0.32181600
