15
b3lypvdz=-250.492288752101 
N           2.13968100      0.85629300     -0.13425100
C           0.75748900      0.96098900     -0.14694700
C           2.98656800      2.00016200     -0.43003400
C           0.01214100      1.99229100     -0.58876200
C           4.40775900      1.56065500     -0.65081500
C           5.46460700      2.01751900      0.02575800
H           2.51872500      0.22366100      0.56251800
H           0.26135900      0.05509700      0.21905900
H           2.93518300      2.78451500      0.35476100
H           2.60193500      2.45925500     -1.35893900
H          -1.07444000      1.89844300     -0.60978600
H           0.44446900      2.92338300     -0.95903800
H           4.54594900      0.80183800     -1.43172900
H           6.47517900      1.66253000     -0.19383500
H           5.35699700      2.76717000      0.81723900
