10
b3lypvdz=-155.885186679652 
C           0.00882400     -0.39951100     -0.28317200
C           0.59752500      0.80427300     -0.37321300
C          -1.36797000      2.38154600     -0.24296300
C          -0.05546300      2.12285000     -0.35812400
H          -1.07408400     -0.52112800     -0.18084900
H           0.60692600     -1.31351200     -0.30743800
H           1.68897200      0.83160800     -0.47536100
H          -2.11782800      1.59151700     -0.14121600
H          -1.73617500      3.41027300     -0.24649300
H           0.62587200      2.97608400     -0.45687200
