13
b3lypvdz=-340.528911076626 
O           5.17579700     -2.60580300     -0.08531400
N           4.60152500      0.12615300     -0.13358600
N           8.34412400      0.15317900      0.21223400
C           4.26743400      1.35290900     -0.19061200
C           5.93641800     -0.33322200     -0.05524200
C           7.03142800      0.49167100      0.02929000
C           6.08164900     -1.79775800     -0.05844300
H           8.63380300     -0.80192000      0.03308600
H           9.03254900      0.84640100     -0.05898200
H           3.19829200      1.59754500     -0.24376200
H           4.96222600      2.21773600     -0.19465900
H           6.87275700      1.57542500      0.01534600
H           7.14869700     -2.15991400     -0.03895500
