9
b3lypvdz=-263.200470856732 
O           5.26590300     -2.72718400      0.06215000
N           8.26283000      0.08609200      0.12671000
N           7.49053400     -2.20702100      0.23339400
C           6.14244900     -1.89311000      0.06196500
C           8.38422300     -1.26895800      0.22686900
H           7.39457800      0.51066400     -0.17621500
H           9.10010100      0.62278000     -0.06636400
H           5.86572400     -0.80948600     -0.08906100
H           9.43005800     -1.58297700      0.36745000
