16
b3lypvdz=-321.879865799806 
N           1.84404400      1.02031100      0.04689500
N           8.33445600      0.03908200      0.11583200
N           6.54520200      1.47078700      0.51374300
C           2.90717600      1.72243700     -0.68763300
C           4.25598700      1.16494400     -0.33959500
C           7.15855000      0.64373600     -0.24996800
C           5.26786200      1.90854000      0.14881000
H           0.93733300      1.41238900     -0.22108200
H           1.94408500      1.22592300      1.04516900
H           8.96031500     -0.24519500     -0.62967300
H           8.78963300      0.43956500      0.93214600
H           2.92287200      2.82504900     -0.53410200
H           2.71064800      1.55367100     -1.76477300
H           4.37954700      0.08208500     -0.46181400
H           6.77524600      0.32517700     -1.23788600
H           5.09754500      2.97369700      0.35693100
