9
b3lypvdz=-117.824479152618 
C           4.41592100      1.43666100     -0.24113100
C           2.98320800      1.87180500     -0.38271700
C           5.47079700      2.25483800     -0.18573300
H           4.58845900      0.35294000     -0.18181800
H           2.53078700      1.44293900     -1.29527600
H           2.37497400      1.51499900      0.46851800
H           2.89246200      2.96914800     -0.43507200
H           6.48652500      1.86104200     -0.08324300
H           5.35706600      3.34392800     -0.24032800
