13
b3lypvdz=-394.728453030125 
O           5.23963200     -2.65769600      0.01531800
N           8.19117200      0.04640800      0.16693500
N           7.48410800     -2.21774400      0.19951700
N           9.75420600     -1.68841500      0.24729300
C           5.87151400     -0.37475100     -0.03032500
C           6.89182700      0.50528200      0.01073100
C           6.13385500     -1.82709900      0.05659500
C           8.41525300     -1.31710100      0.21873000
H           8.96918300      0.66768200     -0.01932300
H          10.34304200     -1.14190900      0.87266600
H           9.84124500     -2.68732700      0.42345900
H           4.83818400     -0.04512400     -0.13970600
H           6.77597900      1.58859300     -0.06259000
