8
b3lypvdz=-191.813613320721 
C           5.88609200     -0.36903200     -0.00962200
C           6.88549700      0.52232100      0.03466100
O           5.26947700     -2.66913400      0.05273800
C           6.13872800     -1.82282700      0.07431300
H           4.83890700     -0.06602100     -0.11129300
H           7.92745500      0.19835800      0.13590100
H           6.70031900      1.59838600     -0.02582300
H           7.22332400     -2.10205200      0.16532600
