9
b3lypvdz=-171.923800293971 
     N      6.51441000      1.82505000      0.32197100
     C      5.89095800     -0.52502300      0.11374700
     C      6.77281800      0.48057300      0.01142800
     C      5.53353800      2.41562400     -0.23457800
     H      5.29718600      3.44807300      0.05773100
     H      4.86340400     -0.34711500      0.44300000
     H      6.20122900     -1.55409200     -0.08035700
     H      7.81991500      0.28150000     -0.24599000
     H      4.89724200      1.93831000     -1.00435100
