9
b3lypvdz=-209.069180486855 
O          -5.16375400     -1.45305500      2.55374900
C          -5.93199700     -0.61329700      2.14374100
C          -5.62900800      0.30026500      0.97013500
N          -4.31033200      0.16307000      0.37393400
H          -6.93860300     -0.46272300      2.62314700
H          -6.41076700      0.11992200      0.20528900
H          -5.79140900      1.34353500      1.30754000
H          -3.61074500      0.33385500      1.10228800
H          -4.16918600     -0.82167100      0.13137700
