15
b3lypvdz=-250.497787129409 
N           2.10655600      0.80572600     -0.72839100
C          -2.30657000      0.97864400     -0.33557700
C           0.77829700      0.88404000     -0.36457400
C           3.05119100      1.81893300     -0.29007100
C          -1.50572800     -0.03863400      0.03577200
C          -0.06844900     -0.16125900     -0.19289500
H           2.48112400     -0.13940700     -0.74446000
H          -3.36217600      0.99499700     -0.05353200
H          -1.93223000      1.82398300     -0.92115700
H           0.41117700      1.91164000     -0.25187900
H           3.96126800      1.76796500     -0.90702500
H           3.34720200      1.73304700      0.77628900
H           2.60157300      2.81469500     -0.43687700
H          -1.96391600     -0.88235300      0.56863300
H           0.34468100     -1.17741600     -0.21535700
