14
b3lypvdz=-287.438921526194 
N           2.07167300      0.78189000     -0.55226900
C          -2.12190200      1.06161000     -0.13992500
C           0.68911600      0.87754100     -0.36460700
C          -1.34106900      2.21792800     -0.24536200
C          -1.49017000     -0.18673900     -0.13694300
C           0.04816800      2.13203000     -0.35494900
C          -0.10164400     -0.28239300     -0.24546900
H           2.59411000      1.60444700     -0.26692600
H           2.48822900     -0.06897500     -0.18646900
H          -3.20908300      1.13413500     -0.05127000
H          -1.81987700      3.20125500     -0.24073000
H          -2.08501300     -1.09944300     -0.04355700
H           0.64429600      3.04622000     -0.44494000
H           0.37726600     -1.26720500     -0.24548500
