14
b3lypvdz=-324.5198417804 
O          -4.06189600      2.27807600     -0.28012100
N          -4.30680900      0.15488800      0.47843900
C          -3.55422300      1.20634500      0.02128700
C          -2.06457000      0.95616600     -0.13977500
C          -1.26778700      2.19378100     -0.29360800
C          -1.56702800     -0.29326300     -0.19259100
C           0.06836100      2.27889700     -0.33086700
H          -5.27444400      0.37264700      0.69084700
H          -3.87150200     -0.57823300      1.02237900
H          -1.88170400      3.09306600     -0.37964900
H          -0.50310800     -0.48087300     -0.34950600
H          -2.21065000     -1.17101300     -0.12523600
H           0.72016400      1.40578900     -0.24110300
H           0.56279600      3.24482700     -0.45339800
