10
b3lypvdz=-247.151044753542 
O           5.12449400     -2.65495400     -0.02705000
N           8.28943600      0.22322500      0.12387400
C           5.91226500     -0.41737500      0.07528300
C           6.94101800      0.47607600      0.10044500
C           6.05139400     -1.86067700     -0.01971800
H           8.60985400     -0.69910800     -0.15073900
H           8.89574100      0.97055800     -0.19446900
H           4.89019000     -0.03723100      0.13518800
H           6.70278200      1.54376300      0.16597500
H           7.10892500     -2.24267600     -0.09668800
