13
b3lypvdz=-286.45073271671 
O          -4.12574300      2.45214600      0.05811600
N          -4.28293300      0.23121100      0.53725200
C          -5.68632600      0.29400100      0.90449500
C          -3.58535400      1.35944500      0.19059400
C          -2.12522000      1.13588100     -0.04892600
C          -1.32510700      2.15742700     -0.36396200
H          -3.75855100     -0.59748000      0.79066600
H          -6.19863700      0.99935800      0.23726500
H          -6.13926000     -0.70250500      0.79575100
H          -5.83800800      0.64623100      1.94234800
H          -1.72890500      0.11744200      0.03553000
H          -0.25789500      2.01634500     -0.54952500
H          -1.74596300      3.16329800     -0.44840400
