14
b3lypvdz=-324.508428685572 
O          -4.37339300      2.21462200     -0.04637800
N           2.18289000      0.63865700     -0.41238000
C          -3.67790700      1.21195900     -0.06009100
C          -2.22472800      1.20487400     -0.15514000
C           0.83456500      0.81819200     -0.26481100
C          -1.52387500      0.03962800     -0.14670700
C          -0.09831900     -0.17196200     -0.21308700
H           2.79323000      1.38438000     -0.09822500
H           2.55327800     -0.29193200     -0.24477300
H          -4.13721600      0.18684100      0.00572500
H          -1.74777500      2.18684500     -0.23292600
H           0.52465100      1.86741800     -0.23784500
H          -2.12436600     -0.87711900     -0.07475600
H           0.25226600     -1.20940300     -0.22300600
