7
b3lypvdz=-207.852975669951 
N           7.54366400     -2.28133900      0.19220500
O           5.25913500     -2.62349100      0.05904500
C           6.18148000     -1.85589800      0.07868300
C           8.38290900     -1.32125000      0.20489500
H           6.03709700     -0.74080300      0.00699300
H           8.08973600     -0.25206600      0.13674000
H           9.45528000     -1.54495300      0.28773900
