16
b3lypvdz=-362.871464721834 
O          -7.12906300     -0.62560700      2.55191700
O          -4.94663200     -1.13849800      2.69752400
N          -4.36411300      0.11310700      0.33975700
C          -5.67291900      0.37045600      0.93342900
C          -6.79966500      0.23728200     -0.11546900
C          -6.94215600     -1.17067000     -0.69691300
C          -5.84576800     -0.55401500      2.13362800
H          -7.12239600     -1.20022300      3.33987500
H          -3.98124200      0.97002500     -0.05874200
H          -3.72183300     -0.19857500      1.06992700
H          -5.76230300      1.38819400      1.37778700
H          -6.56591500      0.95419100     -0.92190300
H          -7.74669200      0.57139200      0.33905000
H          -7.64721200     -1.18418500     -1.54342100
H          -5.96652500     -1.53702200     -1.05147700
H          -7.32416600     -1.87445100      0.06113100
