12
b3lypvdz=-232.108920934369 
C          -2.10520700      1.06191400     -0.13144500
C           0.67564500      0.88810100     -0.37664200
C          -1.33983700      2.22656800     -0.25243200
C          -1.48039100     -0.18965200     -0.13255900
C           0.05085100      2.13965100     -0.37568900
C          -0.08972200     -0.27659800     -0.25599200
H          -3.19189700      1.13106000     -0.03128100
H           1.76240300      0.81891000     -0.47613500
H          -1.82950200      3.20399400     -0.25040500
H          -2.07886400     -1.09881700     -0.03342600
H           0.64928700      3.04884300     -0.47478900
H           0.39983300     -1.25407300     -0.25870300
