15
b3lypvdz=-250.489327085489 
N           2.01537900      0.79529800     -0.72839400
C           0.65123400      0.78959200     -0.39214700
C           2.91485200      1.87037100     -0.33175600
C          -1.33678800      2.34818900     -0.34204100
C          -0.01945900      2.11056100     -0.40385800
C           0.00402400     -0.37206300     -0.13848500
H           2.43178000     -0.11981200     -0.58253500
H           3.94827800      1.53797400     -0.51307200
H           2.83312000      2.16084400      0.73609000
H           2.76219600      2.77489000     -0.94217300
H          -2.07856900      1.54749000     -0.28495600
H          -1.71866300      3.37138700     -0.35408000
H           0.64363800      2.97648800     -0.48293900
H          -1.06808400     -0.39775200      0.05082400
H           0.54156200     -1.32345800     -0.13117800
