10
b3lypvdz=-243.325662483176 
N           8.10764300      0.03547600      0.14264400
N           6.79520800      1.92229600     -0.01371400
N           7.61508100     -2.34200800      0.17728300
C           6.87057000      0.64867900      0.04348500
C           8.39120000     -1.33045800      0.18557300
H           8.89126500      0.68295900      0.15751900
H           5.81446100      2.21201300     -0.08191200
H           6.62479600     -2.06424800      0.13106500
H           6.01956700     -0.05189100      0.02327200
H           9.47591000     -1.51011900      0.23678600
