11
b3lypvdz=-173.1455317891 
C           0.70850900      0.93832400     -0.37951800
C           2.98224800      1.86332400     -0.39500500
C           0.05451200      2.11464700     -0.34768100
N           2.07381600      0.74317800     -0.51573000
H           0.14370300      0.00051300     -0.33641600
H           4.01764000      1.50358200     -0.48725100
H           2.87824100      2.41341300      0.56358700
H           2.80089800      2.58830700     -1.20673800
H          -1.03523700      2.12455100     -0.30609900
H           0.56761000      3.07676800     -0.38374500
H           2.41516000     -0.12400700     -0.11660300
