14
b3lypvdz=-266.539338344644 
N           2.09252700      0.67807500     -0.50896500
N           4.71147600      0.12902900     -0.19115900
C           0.72574500      0.78782700     -0.38017700
C           2.97423200      1.80052600     -0.37279000
C          -0.16114600     -0.21730700     -0.25418000
C           4.40961200      1.36480000     -0.23642600
H           2.53978100     -0.22210900     -0.35767600
H           5.72443900     -0.00505800     -0.08607100
H           0.36472600      1.82320600     -0.41643200
H           2.74150200      2.43295100      0.51437100
H           2.91472000      2.49071500     -1.24289500
H          -1.22764900      0.00204300     -0.19637600
H           0.15606400     -1.26394500     -0.21521200
H           5.14167200      2.19204600     -0.17361400
