15
b3lypvdz=-250.498742124691 
N           2.15529800      0.73948300     -0.43518400
C          -2.29264100      1.12704500     -0.24456500
C           0.79322900      0.87148400     -0.26955400
C           3.02495600      1.89626600     -0.44904600
C          -1.37523700      2.11055500     -0.19361300
C           0.08027200      2.02662300     -0.28384600
H           2.55876000     -0.10232100     -0.04059200
H          -3.35492600      1.35468400     -0.13390000
H          -2.02686600      0.07689600     -0.39893800
H           0.27629100     -0.08550000     -0.14873200
H           4.06558800      1.56602900     -0.57765500
H           2.95383800      2.50635200      0.47372700
H           2.76619700      2.55320400     -1.29653200
H          -1.75591100      3.13099800     -0.06201200
H           0.61125000      2.97780300     -0.36195800
