10
b3lypvdz=-247.17065918309 
O          -4.17180800      2.38496900     -0.01979500
N          -4.31003000      0.14668200      0.35476700
C          -3.61900200      1.29941200      0.09104700
C          -2.13851900      1.11609200     -0.06224400
C          -1.34636400      2.16766200     -0.28174100
H          -5.30335400      0.21808100      0.53974300
H          -3.84313900     -0.73331600      0.52639800
H          -1.72363500      0.10404100      0.01209100
H          -0.26507800      2.06282000     -0.39726700
H          -1.79237100      3.16385700     -0.35209800
