16
b3lypvdz=-321.868151827047 
N           1.94455200      0.84613500     -0.74979400
N           4.59853400      0.20288000      0.01753500
N           8.34088400      0.05074700      0.20273800
C           2.89861000      1.89442900     -0.41649000
C           4.28749000      1.44294000     -0.01792000
C           5.90785800     -0.20304400      0.31097300
C           7.03516600      0.41180400     -0.11746100
H           1.90607200      0.20087200      0.04481300
H           2.36223300      0.26897600     -1.48620900
H           8.42971900     -0.85350500      0.66050100
H           9.00875400      0.14030100     -0.55897800
H           2.48840000      2.51492600      0.40486500
H           2.98669400      2.59576300     -1.26978100
H           5.00815900      2.24206400      0.25561200
H           5.96922000     -1.15152200      0.85814900
H           6.95375400      1.30333400     -0.74945300
