11
b3lypvdz=-227.254532939753 
N           8.18947100      0.13499900      0.16035300
N           6.66504200      1.84934500     -0.04252000
C           5.85958400     -0.50223600     -0.04671000
C           6.83546700      0.42863300      0.00267400
C           5.51302700      2.37408500     -0.16832600
H           8.46982600     -0.79058600     -0.15019500
H           8.78495300      0.86855600     -0.21525900
H           4.80686100     -0.22723000     -0.09619500
H           6.10501400     -1.56569600     -0.01500200
H           4.56559500      1.81143300     -0.24303000
H           5.44406100      3.46979600     -0.21028900
