14
b3lypvdz=-324.481583887177 
O           5.10254100     -2.68118600      0.11056800
N           4.72651900      0.10971700     -0.13380800
C           3.03463800      1.82583300     -0.35886200
C           4.50263900      1.50757800     -0.24444400
C           5.88667800     -0.40997600     -0.01118900
C           5.45775300      2.45671200     -0.25180000
C           6.02610300     -1.90093500      0.10828000
H           2.60437600      1.31268700     -1.23506700
H           2.49179000      1.43755900      0.51953500
H           2.84987900      2.90598800     -0.44833500
H           6.83745800      0.15892300      0.02023300
H           6.52397200      2.22916000     -0.17417800
H           5.18595400      3.51107700     -0.33816300
H           7.08980000     -2.24723900      0.19912900
