8
b3lypvdz=-133.866105351653 
N           8.24035200      0.08375300      0.17757900
C           5.83697400     -0.35207800     -0.02329800
C           6.90618800      0.45944700      0.01533600
H           8.43387100     -0.89386500     -0.02661600
H           8.90839100      0.69207800     -0.28670600
H           4.83122800      0.06711800     -0.06608600
H           5.93661600     -1.44232200      0.00928800
H           6.76367900      1.54666900     -0.01979700
