15
b3lypvdz=-250.496674370054 
N           2.00602800      0.75435000     -0.44343100
C           0.63396700      1.02517700     -0.45404100
C           2.96784100      1.82671600     -0.29873800
C          -1.41559300     -0.34825800      0.03680600
C           0.10545500      2.27082500     -0.51075400
C          -0.19041200     -0.20539500     -0.48440000
H           2.24191000     -0.07638500      0.09238400
H           3.98115900      1.39752300     -0.31422600
H           2.84572600      2.41684300      0.63415200
H           2.88106600      2.52665100     -1.14682700
H          -1.91585500      0.47130700      0.55985400
H          -1.95794700     -1.29313600     -0.05229500
H          -0.96502500      2.40510700     -0.66492600
H           0.72328200      3.16730400     -0.45759600
H           0.28709800     -1.06432600     -0.97426300
