12
b3lypvdz=-319.518683082313 
N           4.59260300      0.05608500     -0.19653900
N           8.23467800      0.14131400      0.18101900
N           6.72238500      1.89397100     -0.05294100
C           4.38383600      1.38548300     -0.22691900
C           5.85398700     -0.34481000     -0.08535200
C           6.93318300      0.57003800     -0.00264000
C           5.44436400      2.28529900     -0.16093200
H           8.45403300     -0.77949400     -0.18610400
H           8.92763500      0.84456500     -0.06065200
H           3.35041100      1.73251200     -0.31371000
H           6.03896500     -1.42553600     -0.05704000
H           5.26492100      3.36547300     -0.20329100
