10
b3lypvdz=-189.190950403521 
N           4.71384800      0.09297800     -0.19517200
C           4.44300900      1.33749700     -0.22734400
C           3.01552800      1.81522100     -0.38863600
N           1.98682800      0.79147300     -0.50917100
H           5.72598300     -0.05091000     -0.07705600
H           5.20888600      2.13693700     -0.14071900
H           2.77728400      2.46896000      0.47430300
H           2.97393500      2.48561100     -1.26992800
H           2.08311000      0.15979100      0.29193800
H           2.23908900      0.18994200     -1.30011400
