15
b3lypvdz=-287.668282556897 
O          -3.94812900      2.39207300      0.01199700
N          -4.37127300      0.18870700      0.48175600
C          -5.74261600      0.37827200      0.94783600
C          -6.79952200      0.21362700     -0.15248500
C          -6.89067300     -1.20571200     -0.72043700
C          -3.58812100      1.22997300      0.07676600
H          -3.94060500     -0.72512700      0.55640600
H          -5.92835300     -0.34072800      1.76337300
H          -5.80102200      1.39269100      1.36941400
H          -6.57512800      0.93299500     -0.95823000
H          -7.77571000      0.51089500      0.27135700
H          -7.64964100     -1.27393900     -1.51609800
H          -5.92944000     -1.52532200     -1.15704900
H          -7.16490700     -1.93455500      0.06184100
H          -2.55776200      0.89455000     -0.19584800
