12
b3lypvdz=-356.585857150751 
O           5.21954800     -2.65558900     -0.09125300
N           4.72451400      0.00202600     -0.72648100
N           8.23210100      0.12207800     -0.04496400
N           6.78448100      1.82430200      0.57311100
C           5.83621900     -0.33379000     -0.19401400
C           6.95353500      0.63438800      0.12135200
C           6.02531500     -1.80122100      0.18303400
H           4.72893200      1.01637500     -0.92215200
H           8.37465200     -0.48230200     -0.85063300
H           8.95507700      0.83374000      0.04817100
H           5.79001300      2.00029400      0.75439100
H           6.96471100     -2.03030100      0.74183800
