14
b3lypvdz=-324.521041755087 
O          -4.25178400      2.27222300     -0.19825400
N          -4.38081500      0.06891000      0.38091700
C          -3.68694300      1.21222900      0.03742900
C          -2.20734600      1.09351200     -0.09557100
C           0.85423100      0.80958800     -0.37426600
C          -1.49562800     -0.05032400     -0.13146800
C          -0.04341800     -0.18531100     -0.29079200
H          -5.35427800      0.22648300      0.62274900
H          -3.90297200     -0.63127000      0.93623400
H          -1.73003400      2.06817000     -0.22556500
H           1.91746400      0.59280300     -0.49652800
H           0.55994900      1.86157900     -0.32973700
H          -2.04110200     -0.99680600     -0.04982600
H           0.32367500     -1.21568600     -0.34362300
