7
b3lypvdz=-149.923825386804 
N           7.47226200     -2.19684600      0.19204300
N           9.74292400     -1.68876300      0.23060400
C           8.40813800     -1.32833600      0.23879900
H           6.56691300     -1.72057100      0.12324300
H          10.38527000     -1.06454500      0.70660100
H           9.90596400     -2.67516300      0.42215600
H           8.26043000     -0.23047500      0.24145500
