11
b3lypvdz=-227.253770639266 
N           4.62255100      0.19029200     -0.47518100
N           8.30395500      0.10731900      0.21828600
C           4.23715300      1.36342500     -0.14663400
C           5.90340700     -0.25551800     -0.12349200
C           7.02731500      0.49963100     -0.16129700
H           8.41758600     -0.88469100      0.40898000
H           9.05803200      0.46750300     -0.36044100
H           3.26403800      1.72464000     -0.50481600
H           4.83454000      2.04876800      0.48624900
H           5.96056500     -1.32665900      0.10374800
H           6.95995700      1.53738900     -0.50710300
