11
b3lypvdz=-268.266223538639 
O          -7.07478100     -0.38652700      2.69836800
O          -5.09409900     -1.43789300      2.49182700
C          -5.67099300      0.32848400      0.92380700
C          -6.78125700      0.21573700     -0.13019800
C          -5.87348100     -0.60049600      2.09927100
H          -7.12310900     -1.02718200      3.43233600
H          -4.68461600      0.10045800      0.49636800
H          -5.64101200      1.35865000      1.32098200
H          -6.83703900     -0.80681000     -0.53819700
H          -6.58671100      0.90153800     -0.96882100
H          -7.76220200      0.46384000      0.30255900
