12
b3lypvdz=-269.166431933511 
O          -4.07199300      2.29921600     -0.00774900
C          -3.52180600      1.21961900      0.02784100
C          -2.05152800      1.01389400     -0.10704800
C          -1.23507800      2.22954900     -0.28001900
C          -1.61090400     -0.26033800     -0.06570500
C           0.09551200      2.29074400     -0.42579700
H          -4.11014500      0.27639400      0.17130700
H          -1.81710700      3.15573500     -0.28564800
H          -0.55565300     -0.52532300     -0.16235100
H          -2.31411400     -1.08675100      0.06982400
H           0.73491200      1.40241900     -0.43328100
H           0.59560600      3.25414100     -0.55087300
