7
b3lypvdz=-149.921773670079 
N           8.21691400      0.07983200      0.16552700
N           7.52200900     -2.22222500      0.21438200
C           8.39769400     -1.29314900      0.19334300
H           7.30612800      0.41831900     -0.13340600
H           8.99084800      0.64279800     -0.17187700
H           6.57376700     -1.81742200      0.15213100
H           9.46094100     -1.57925400      0.25810000
