12
b3lypvdz=-211.220184702959 
N           4.64469100      0.21821100     -0.05284400
C           2.91078100      1.89024600     -0.34533600
C           4.30724800      1.36669500     -0.49287000
C           5.97648800     -0.21009900     -0.14492700
C           7.04532800      0.42944500      0.35399700
H           2.28307700      1.15853600      0.18243400
H           2.91471600      2.83966300      0.21873200
H           2.47044300      2.11134300     -1.33352700
H           5.04163500      2.01760600     -1.01094800
H           6.08357800     -1.20595400     -0.59130100
H           8.03779700     -0.02329200      0.30121500
H           6.94191800      1.38989900      0.86607500
