12
b3lypvdz=-248.357050499648 
O          -5.16012900     -1.45051800      2.51671500
N          -4.32986800      0.16710600      0.36787600
C          -5.65107700      0.33484500      0.96151800
C          -6.75410200      0.20357100     -0.09725500
C          -5.93578900     -0.60736700      2.12713300
H          -3.63279200      0.21801300      1.11618800
H          -4.25320600     -0.79818100      0.03153900
H          -5.71273000      1.35915100      1.38460300
H          -6.76704600     -0.81237800     -0.52947200
H          -6.57644900      0.91725800     -0.91455900
H          -7.74985900      0.39992300      0.33357000
H          -6.93555200     -0.46952500      2.62364400
