14
b3lypvdz=-266.545775214782 
N           4.60424200      0.20648000     -0.18568900
N           8.34598500     -0.02863000      0.21814300
C           2.85178300      1.87501500     -0.37448300
C           4.28262800      1.44249000     -0.24235700
C           5.93080700     -0.24662400     -0.06592100
C           7.07243000      0.48067300     -0.02165300
H           8.43466400     -1.03500200      0.09263500
H           9.09603600      0.46734500     -0.25550400
H           2.19335800      0.99482000     -0.40806500
H           2.55548000      2.51985300      0.47406100
H           2.70185800      2.48052900     -1.28818300
H           5.02608100      2.26707100     -0.19212400
H           6.00825400     -1.33938100      0.00933900
H           7.05269400      1.57256000     -0.11179900
