11
b3lypvdz=-285.200283363862 
O           5.11814100     -2.42124800     -0.12989400
N           4.69217500      0.30716500      0.39532100
C           4.26151900      1.24255400     -0.34946300
C           5.98080400     -0.20852400      0.18574200
C           7.11722600      0.51284600      0.26478700
C           6.07038400     -1.68128000     -0.03933600
H           3.27025700      1.67039500     -0.14713500
H           4.83605900      1.65441400     -1.20112800
H           8.08614000      0.01577400      0.17680700
H           7.10613100      1.58520700      0.46831000
H           7.12476400     -2.05030300     -0.13761100
