15
b3lypvdz=-287.640556564445 
O          -8.45259100     -0.34142900     -2.36281800
N          -4.38724500      0.08882400      0.33405100
C          -5.69182600      0.38493400      0.94330000
C          -6.81257600      0.25580100     -0.09156500
C          -6.93801000     -1.15354200     -0.66746500
C          -7.88547800     -1.27188900     -1.83407900
H          -4.16168100      0.82492000     -0.34160800
H          -3.65523400      0.14826000      1.04565100
H          -5.85529700     -0.34870600      1.75395700
H          -5.75499900      1.38891900      1.41460200
H          -6.63962000      0.96787200     -0.91768000
H          -7.77063500      0.56162600      0.36281200
H          -5.94704400     -1.52014100     -0.99973000
H          -7.25919400     -1.88371600      0.10140700
H          -8.03517000     -2.31983200     -2.21253500
