11
b3lypvdz=-285.189808223922 
O           5.19925100     -2.74420000      0.04889400
N           4.74747300      0.04549100     -0.12507500
C           4.51379400      1.43406100     -0.19828200
C           5.92009700     -0.44855200      0.00198500
C           5.40343800      2.43967900     -0.24722200
C           6.09905800     -1.93793300      0.07895500
H           3.44532600      1.67207200     -0.22813800
H           6.85271800      0.14625000      0.07572500
H           6.48704000      2.29047600     -0.23750400
H           5.04454800      3.46982500     -0.30848100
H           7.17075900     -2.25706900      0.18184500
