14
b3lypvdz=-324.497324246386 
O           5.11176300     -2.26302100     -0.59086400
N           4.70581000      0.34234900      0.32875300
C           2.91701600      1.82550500     -0.35134700
C           4.29963300      1.26040300     -0.45459400
C           5.99656700     -0.18468200      0.20482200
C           7.14328100      0.45804100      0.50422900
C           6.06610600     -1.60902400     -0.23600100
H           2.37275900      1.35180500      0.47672200
H           2.94990200      2.91915000     -0.19986200
H           2.36716900      1.65102200     -1.29373900
H           4.95288200      1.66465900     -1.25563600
H           8.09585900     -0.07548200      0.45941700
H           7.15056400      1.49639700      0.84061200
H           7.10679000     -2.02662100     -0.23421100
