8
b3lypvdz=-133.871364448374 
N           4.60995000      0.07833000     -0.15977200
C           4.38731600      1.33001800     -0.23880200
C           2.99346700      1.87101500     -0.38225100
H           5.62045100     -0.09648400     -0.06575000
H           5.19351600      2.09250700     -0.20904600
H           2.27008900      1.04240400     -0.39627800
H           2.75349300      2.55678700      0.45032600
H           2.89901800      2.46132300     -1.31192800
