16
b3lypvdz=-379.86144228113 
O          -4.15344400      2.44025500      0.02842200
N          -4.49412300      0.21663200      0.32138900
N           2.22356100      0.87521700     -0.57162600
C          -3.68573900      1.30705900      0.10705400
C          -2.24019700      1.00074300     -0.02123600
C           0.86857400      0.89189500     -0.32417500
C          -1.36184200      2.01553800     -0.19668100
C           0.07679400      1.99476200     -0.34797600
H          -5.48023100      0.38300100      0.47799500
H          -4.12131700     -0.71013700      0.47506500
H           2.69812900      1.77351900     -0.53125100
H           2.75706000      0.13070800     -0.13496000
H          -1.91937900     -0.04581600      0.02478800
H           0.43527700     -0.09880700     -0.15258600
H          -1.83255300      3.00502900     -0.22810400
H           0.55983200      2.96520400     -0.50771700
