10
b3lypvdz=-247.167889403023 
O          -4.10221800      2.31458000     -0.16726900
N          -4.34670900      0.10881900      0.36512800
C          -3.59793000      1.21938800      0.04327200
C          -2.12025000      1.02282400     -0.08875900
C          -1.48014000     -0.14936000     -0.16002100
H          -5.31507100      0.29648600      0.60632200
H          -3.90515900     -0.65163800      0.86921700
H          -1.58166000      1.97078800     -0.17540200
H          -0.39498100     -0.20175500     -0.28412900
H          -2.01168100     -1.10553300     -0.12605900
