14
b3lypvdz=-266.526149409314 
N           1.94119600      0.89233800     -0.09654300
N           6.60856400      1.64340100      0.51901600
C           2.93701900      1.80257300     -0.67567000
C           4.32802500      1.29912600     -0.41490900
C           7.15103600      0.62480000     -0.02385100
C           5.27560000      2.01404400      0.21497000
H           1.00635600      1.19349400     -0.38253400
H           1.95738200      0.98178700      0.92289600
H           2.86088600      2.85887800     -0.33995100
H           2.76586000      1.80755800     -1.76909300
H           4.52316400      0.27709600     -0.75694600
H           8.17669700      0.35989500      0.26724700
H           6.67059000     -0.01785400     -0.78557700
H           5.03082400      3.01476500      0.58844500
