14
b3lypvdz=-324.506532714351 
O          -4.21041100      2.44367100     -0.02491000
N           2.17428200      0.82765900     -0.51328600
C          -3.69314600      1.33707000      0.01797500
C          -2.25863300      1.06488900     -0.08012700
C           0.82214800      0.89713700     -0.31165500
C          -1.36248400      2.08057600     -0.21769600
C           0.07180200      2.03308600     -0.33680200
H           2.69953700      1.69502300     -0.45572700
H           2.66445800      0.02520200     -0.13467500
H          -4.33292000      0.42546000      0.14249400
H          -1.94993800      0.01570600     -0.04239300
H           0.34180000     -0.07545200     -0.16706600
H          -1.81441200      3.07943800     -0.24196600
H           0.58951800      2.98913600     -0.46876500
