14
b3lypvdz=-324.520280021159 
O          -4.18550500      2.32622400      0.06293400
N          -4.11305600      0.09209400      0.49843700
C          -3.54520200      1.28574300      0.10568400
C          -2.08583300      1.19878800     -0.28541100
C          -1.43720200      2.36155100     -0.47263700
C          -1.45376600     -0.12697600     -0.45354300
C          -0.25515500     -0.47554700      0.03533900
H          -5.02934200      0.17339600      0.92913600
H          -3.51083500     -0.63929800      0.86226100
H          -0.39247600      2.38651200     -0.78963100
H          -1.97571500      3.30046800     -0.32913600
H          -2.03773800     -0.86881100     -1.01340500
H           0.34137300      0.21804900      0.63560200
H           0.16495200     -1.46749300     -0.15163100
