12
b3lypvdz=-298.668016346085 
N           8.14084800      0.00529600      0.06969600
N           6.82144200      1.89019500     -0.13886400
N           7.49814600     -2.32462500      0.14519100
N           9.72066000     -1.66633600      0.29632100
C           6.91811500      0.64352600      0.11873100
C           8.36036900     -1.37704800      0.17855500
H           8.92285700      0.59221500     -0.20974400
H           5.85000600      2.19513400     -0.02288600
H           6.57116000     -1.98470100     -0.12386800
H          10.21455900     -1.08851600      0.97429000
H           9.86193200     -2.65770700      0.47663200
H           6.09640700     -0.02943100      0.41644700
