11
b3lypvdz=-227.268102154489 
N           4.51576200     -0.00415000     -0.18570000
N           6.75921100      2.00424400     -0.03871200
C           3.00170500      1.86120000     -0.38666800
C           4.37690300      1.26393000     -0.23575900
C           5.51870300      2.25728300     -0.15789900
H           5.51332500     -0.25749200     -0.08367300
H           6.91670100      0.98108800      0.00348900
H           2.24885700      1.06363800     -0.43240700
H           2.77508500      2.53159000      0.46113400
H           2.94394600      2.47486200     -1.30308500
H           5.22470100      3.31930700     -0.21372100
