8
b3lypvdz=-191.811134886173 
C          -3.59454200      1.26852100      0.04544200
O          -4.18898500      2.32436600     -0.02927600
C          -1.32998300      2.19120400     -0.26994900
C          -2.12143700      1.12388100     -0.10040900
H          -4.14718200      0.31371600      0.24074600
H          -0.24635500      2.09370600     -0.37676100
H          -1.76585500      3.19372000     -0.30881500
H          -1.71116100      0.10948700     -0.05647800
