10
b3lypvdz=-193.036824187523 
C          -7.94227100     -1.27399900     -1.82465400
O          -8.53255700     -0.33020200     -2.29721900
C          -6.77788500      0.23130900     -0.13153700
C          -6.94394900     -1.17985600     -0.69375900
H          -8.10912100     -2.31204600     -2.22395200
H          -6.04316800      0.24730800      0.68857600
H          -6.44014300      0.92822600     -0.91366900
H          -7.73503900      0.61526100      0.25522000
H          -5.98588800     -1.58132600     -1.08188700
H          -7.25918100     -1.90167500      0.08458100
