7
b3lypvdz=-207.844306559026 
N           4.63315900      0.05628500     -0.13801800
C           5.83311400     -0.35300400     -0.01806500
O           5.27362400     -2.69519900      0.04121000
C           6.12137700     -1.83705100      0.06224500
H           4.61043600      1.08582400     -0.17719600
H           6.72585600      0.30160900      0.03759200
H           7.21313400     -2.08586200      0.14763300
