14
b3lypvdz=-345.389189140525 
O          -4.18122800      2.28126400      0.03364300
C          -3.57323600      1.23061300      0.02695700
C          -2.10195200      1.11036600     -0.11632000
C           0.67130900      0.88169000     -0.38029600
C          -1.31166500      2.26425600     -0.25434400
C          -1.49678300     -0.15495800     -0.11417300
C           0.07038900      2.14862300     -0.38561100
C          -0.11123500     -0.27031600     -0.24662100
H          -4.11331300      0.25399600      0.13893900
H           1.75566400      0.79160300     -0.48609100
H          -1.80375300      3.23893400     -0.25735300
H          -2.11551800     -1.05060900     -0.00317300
H           0.68601800      3.04439100     -0.49595000
H           0.36170200     -1.25515200     -0.24610700
