11
b3lypvdz=-173.140652544464 
C           4.42618000      1.47458900     -0.56008400
C           2.97784100      1.87696100     -0.62759800
C           5.37915300      2.15674800      0.08076900
N           2.12787800      0.75693300     -0.19527400
H           4.67254100      0.53085000     -1.06287400
H           2.83472900      2.81934900     -0.05537800
H           2.71308100      2.09798400     -1.67872800
H           6.41617100      1.80830700      0.10111800
H           5.15644600      3.09460500      0.60250600
H           1.14401600      0.99903300     -0.33281300
H           2.24136200      0.61634100      0.81195500
