9
b3lypvdz=-263.212438814228 
O           5.20078500     -2.55418600     -0.03328400
N           7.48434600     -2.32892900      0.19469500
N           9.69846700     -1.67240500      0.35716500
C           6.17816800     -1.85080700      0.05655700
C           8.38288500     -1.40238400      0.26018500
H          10.37160000     -0.93490800      0.51162400
H           9.99692800     -2.63691900      0.45489300
H           6.08781400     -0.72426700      0.03193800
H           8.14280600     -0.32019500      0.22772700
