12
b3lypvdz=-211.209497310104 
N           4.65040200      0.06860000     -0.15241700
C           3.02651500      1.86028600     -0.38527600
C           4.47898900      1.48936900     -0.23725800
C           5.79643700     -0.46274600     -0.00645900
C           5.45954100      2.40742700     -0.20026800
H           2.60256700      1.38241500     -1.28516000
H           2.44273300      1.47442900      0.46838600
H           2.88355300      2.94872000     -0.45560500
H           6.75148000      0.09083700      0.07671400
H           5.85795300     -1.55823500      0.05834300
H           6.51660600      2.14598500     -0.09834200
H           5.22382500      3.47181200     -0.27255700
