11
b3lypvdz=-318.550614068444 
O           5.17924300     -2.47541400      0.43679100
N           8.24617500      0.05573800      0.22470200
N           7.46364900     -2.20840700      0.35987700
N           9.71836500     -1.72773900      0.19205300
C           6.15980700     -1.86462200      0.06573400
C           8.40671800     -1.31378300      0.24663500
H           7.29822600      0.39532100      0.10338400
H           8.93993900      0.59007700     -0.28956400
H          10.41040900     -1.12952500      0.63279200
H           9.83139600     -2.71684000      0.39098800
H           6.02957200     -0.97000700     -0.61419200
