10
b3lypvdz=-155.885063518272 
C           2.33773800      1.10651500      0.24181300
C           2.99175800     -0.06257100     -0.36759100
C           1.08069300      1.18757100      0.70735600
C           2.46211500     -1.27935600     -0.57727400
H           2.96791400      2.00058900      0.31487500
H           4.02909800      0.10222100     -0.68074300
H           0.38428600      0.34440900      0.67235100
H           0.70548800      2.11794000      1.14005900
H           1.43598100     -1.53280000     -0.29515500
H           3.05543000     -2.07161700     -1.03989000
