12
b3lypvdz=-157.109449060331 
C          -2.08648400     -0.27513700     -0.28353700
C          -1.08984000     -0.14673700      0.87951800
C           0.33608300     -0.02415100      0.41908400
C           1.15339800      0.99757200      0.68901700
H          -3.11519500     -0.39374600      0.09438500
H          -2.05675600      0.61345200     -0.93641200
H          -1.85688800     -1.15114200     -0.91509700
H          -1.19084500     -1.03844600      1.52752100
H          -1.34894800      0.72582200      1.50446600
H           0.70866800     -0.85178700     -0.20124000
H           2.17824200      1.03097200      0.30985300
H           0.82266500      1.84543000      1.29904200
