5
b3lypvdz=-40.480446201661 
C          -2.07919700     -0.19929900     -0.28219400
H          -3.09015000     -0.38830300      0.10995200
H          -1.36224300     -0.19009000      0.55169800
H          -2.05994500      0.77385800     -0.79621700
H          -1.80606500     -0.99216500     -0.99423900
