18
b3lypvdz=-289.778056421763 
N          -3.50762500     -0.30902500      0.20200600
C          -2.11849000     -0.39374000     -0.26543400
C          -1.14888000     -0.13699200      0.89702800
C           0.29162600     -0.11100100      0.47216000
C           1.13986500      0.90760000      0.70339500
C           2.55043500      1.00452500      0.29767700
C           3.23715300      0.16841400     -0.49889400
H          -3.70126500     -1.09106800      0.83370700
H          -4.14114100     -0.44107800     -0.58941500
H          -1.97018600      0.38274900     -1.03558600
H          -1.86157900     -1.36562800     -0.74526400
H          -1.29261300     -0.93913400      1.64975800
H          -1.42805000      0.80944300      1.38969700
H           0.65105300     -0.99751400     -0.06716200
H           0.75579500      1.77367700      1.25589700
H           3.08021000      1.87756500      0.69660600
H           2.78176100     -0.71883600     -0.94882400
H           4.28772900      0.35574100     -0.73365200
