12
b3lypvdz=-232.10879221869 
C           0.39920800     -0.14401100      0.47267200
C           1.03440700     -1.26738000     -0.06708100
C           1.09959200      1.05960700      0.60705900
C           2.37078300     -1.18707500     -0.47271100
C           2.43595300      1.13993300      0.20140300
C           3.07110800      0.01658600     -0.33845400
H          -0.64352500     -0.20780200      0.79363100
H           0.48551100     -2.20659700     -0.17386300
H           0.60282000      1.93676400      1.02935500
H           2.86757800     -2.06427200     -0.89489300
H           2.98487700      2.07912400      0.30826200
H           4.11378900      0.08042300     -0.65958100
