7
b3lypvdz=-95.792469710917 
N          -3.42997100     -0.40785900      0.27829100
C          -2.09174100     -0.21969600     -0.29036800
H          -3.48197100     -1.32944600      0.71941800
H          -4.11611000     -0.43857000     -0.47982100
H          -1.34971800     -0.20643200      0.52577500
H          -2.04265400      0.76403000     -0.78813500
H          -1.76103400     -0.98072700     -1.03026100
