11
b3lypvdz=-119.049788054929 
C          -2.07853300     -0.20297200     -0.27613700
C          -1.08046500     -0.23620600      0.88475500
C          -2.07667800      1.13567500     -1.02347600
H          -3.09427600     -0.40941800      0.10934900
H          -1.84269400     -1.01747300     -0.98501500
H          -0.05013700     -0.06653000      0.52390300
H          -1.09986600     -1.20777700      1.40709600
H          -1.30937900      0.54676900      1.62857600
H          -1.07805100      1.35620600     -1.44007200
H          -2.34817000      1.96596400     -0.34857600
H          -2.79435000      1.13436300     -1.86060200
