18
b3lypvdz=-289.77692383444 
N          -3.31049600     -0.04102800      0.18869600
C          -1.90771300     -0.08654400     -0.24080100
C          -1.01636400     -0.57762300      0.91012700
C           0.46286700     -0.46779800      0.60351100
C           1.21089200     -1.54561500      0.30909500
C           1.03300800      0.89771100      0.64381100
C           2.00066800      1.37558600     -0.15252000
H          -3.65587600     -0.99541300      0.32354500
H          -3.88594600      0.34910400     -0.56067600
H          -1.60856700      0.93878500     -0.52115700
H          -1.71848200     -0.72303000     -1.13243800
H          -1.27102100     -1.62416400      1.15283300
H          -1.25955700      0.02446900      1.80363600
H           2.28241300     -1.46150100      0.11007100
H           0.76906500     -2.54486900      0.26260500
H           0.59032000      1.57172500      1.38962400
H           2.44149500      0.76947000     -0.94970400
H           2.37929500      2.39383500     -0.03105900
