8
b3lypvdz=-79.764226930767 
C          -2.07373200     -0.19939900     -0.27591600
C          -1.07846700     -0.23250100      0.88681600
H          -3.10963700     -0.32443300      0.08365200
H          -2.02100500      0.75817100     -0.82175700
H          -1.86974100     -1.00532600     -1.00116400
H          -0.04256300     -0.10746700      0.52724800
H          -1.13119500     -1.19007100      1.43265700
H          -1.28246000      0.57342600      1.61206300
