10
b3lypvdz=-135.081307657516 
N          -3.44418400     -0.40069000      0.27270600
C          -2.08337900     -0.23366500     -0.25370300
C          -1.06405000     -0.23023700      0.88180700
H          -3.52417500     -1.32759700      0.70141300
H          -4.11135200     -0.40540200     -0.50228400
H          -2.04759100      0.74055300     -0.77365200
H          -1.78577900     -0.99894600     -1.00570700
H          -0.05039200     -0.02504000      0.49791100
H          -1.03403700     -1.20730900      1.39757600
H          -1.32166100      0.53493400      1.63193300
