19
b3lypvdz=-273.746139236918 
C          -2.14398000     -0.20327700     -0.23729500
C          -1.12452200     -0.04930600      0.91327500
C           0.30479400     -0.02905700      0.45893700
C          -2.25637800      1.02607900     -1.14013400
C           1.21095900      0.92221400      0.74871600
C           2.62118300      0.96153000      0.32770900
C           3.27166300      0.08038100     -0.44977700
H          -3.12893000     -0.44045800      0.20234900
H          -1.86339600     -1.08352700     -0.84531800
H          -1.26799000     -0.90200400      1.60472400
H          -1.34611100      0.86713300      1.49030700
H           0.61668100     -0.88309100     -0.15818500
H          -1.28161700      1.29290500     -1.58218000
H          -2.61256800      1.90507300     -0.57483300
H          -2.96352600      0.85509500     -1.96805200
H           0.88166900      1.76686900      1.36603400
H           3.18593400      1.82278400      0.70325300
H           2.78137300     -0.80509800     -0.86503800
H           4.32486100      0.22305400     -0.70139200
