16
b3lypvdz=-234.458764252767 
C          -1.98935100     -0.26210900     -0.30161000
C          -1.04425800     -0.18340300      0.91062100
C           0.41146100     -0.00693800      0.52263600
C           1.06147400     -1.20426900     -0.06597000
C           1.03394100      1.17224300      0.70049100
C           2.30536800     -1.31118400     -0.55681100
H          -3.03212100     -0.40837300      0.02710300
H          -1.94117400      0.66375700     -0.89966900
H          -1.72820700     -1.09812600     -0.97280300
H          -1.14879500     -1.10918400      1.50747500
H          -1.35100800      0.64885400      1.56440000
H           0.43213200     -2.10302000     -0.08736000
H           2.07527700      1.33640000      0.41104400
H           0.50904300      2.02141000      1.14526400
H           3.00274200     -0.46805400     -0.58273300
H           2.67127600     -2.26140400     -0.95297700
