16
b3lypvdz=-234.461462313633 
C          -2.24309200     -0.08003600     -0.24044600
C          -1.13812900     -0.33300800      0.79756600
C           0.24762000     -0.21036700      0.23004400
C           1.13297700     -1.21682500      0.13142500
C           2.49810400     -1.10680100     -0.40511900
C           3.30286100     -0.03907100     -0.29106800
H          -3.24041100     -0.14859600      0.22519600
H          -2.15263800      0.92255500     -0.69354600
H          -2.19350700     -0.81491800     -1.06067700
H          -1.26646700     -1.33256700      1.24799700
H          -1.25372000      0.39602100      1.62255300
H           0.52681800      0.77836300     -0.15828200
H           0.82019700     -2.21723100      0.45846500
H           2.88207900     -1.99510300     -0.92300400
H           2.99703600      0.85171300      0.26564800
H           4.29657300     -0.02972900     -0.74535300
