16
b3lypvdz=-234.461194191948 
C          -2.15153500     -0.29405900     -0.28606500
C          -1.16838800     -0.10333700      0.87965300
C           0.26975200     -0.08584700      0.44906900
C           1.13090900      0.92113800      0.68230600
C           2.54393800      0.99958100      0.28430900
C           3.25057800      0.10678300     -0.42826900
H          -3.18917600     -0.33246000      0.08437100
H          -2.07445000      0.52822900     -1.01678400
H          -1.95448100     -1.23464600     -0.82962200
H          -1.32138400     -0.92871700      1.60211900
H          -1.40388600      0.82989700      1.42046800
H           0.61694400     -0.97207200     -0.09873300
H           0.75321000      1.79344300      1.22943700
H           3.06002600      1.90742000      0.61765500
H           2.81257500     -0.82393000     -0.80018300
H           4.30126800      0.28667600     -0.66653200
