15
b3lypvdz=-196.393464606704 
C          -2.13888400     -0.12381300     -0.35650100
C          -1.05873000     -0.35759300      0.72243500
C           0.35245100     -0.30557800      0.20347700
C          -2.16697100      1.29673500     -0.92907200
C           1.21928400     -1.32216900      0.24757600
H          -3.12236500     -0.35341200      0.09235000
H          -1.99143500     -0.85323700     -1.17316600
H          -1.22909700     -1.33964900      1.19699500
H          -1.18871800      0.40234900      1.51777400
H           0.67568700      0.63785500     -0.25523900
H          -1.21293900      1.56800100     -1.41230900
H          -2.36264200      2.04194200     -0.13862200
H          -2.95701100      1.40710800     -1.69016500
H           2.23072500     -1.23294800     -0.15849000
H           0.94584400     -2.28379100      0.69585900
