16
b3lypvdz=-234.458515821383 
C          -1.97634800      0.04353900     -0.28285800
C          -1.04710600     -0.39890000      0.86024000
C           0.41838800     -0.36683600      0.47024100
C           1.07293400     -1.50064200      0.16157500
C           1.03964400      0.97982600      0.42817200
C           2.30975100      1.29475700      0.13552900
H          -3.03039200      0.03350100      0.04159200
H          -1.73840600      1.06449500     -0.62781100
H          -1.87247900     -0.62472500     -1.15367300
H          -1.31988100     -1.41482700      1.18763300
H          -1.20524900      0.26807600      1.72753600
H           2.11709600     -1.50412000     -0.16056900
H           0.56854400     -2.46885200      0.21473000
H           0.35993100      1.80025000      0.68995800
H           3.05730100      0.53965000     -0.12352300
H           2.64877100      2.33330800      0.15192900
