15
b3lypvdz=-271.397211747432 
C          -1.06803900     -0.22896200      0.89241700
C           0.38661500     -0.15152300      0.47979300
C           1.04750600     -1.26876400     -0.05583600
C           1.10187400      1.05046700      0.59812400
C           2.38237500     -1.18617800     -0.46603500
C           2.43569400      1.13846500      0.18701200
C           3.08054600      0.01948400     -0.34788300
H          -1.73061300      0.03408700      0.04810400
H          -1.34008700     -1.24237600      1.22869400
H          -1.28867500      0.46840600      1.71531800
H           0.51224600     -2.21789200     -0.15494200
H           0.61041300      1.93152600      1.02098400
H           2.88075000     -2.06798400     -0.87781900
H           2.97597300      2.08350200      0.29008100
H           4.12232100      0.08694100     -0.67171300
