13
b3lypvdz=-195.174419036802 
C          -1.02189900     -0.23250300      0.86964700
C           0.43121200     -0.02625100      0.50379300
C           1.10766200     -1.21824800     -0.06555800
C           1.03574100      1.16069200      0.69027000
C           2.36202800     -1.31095900     -0.53210400
H          -1.60589100     -0.55930100     -0.00988500
H          -1.13138700     -1.02692700      1.62963800
H          -1.47817700      0.68717100      1.26495500
H           0.48487000     -2.12086400     -0.10722500
H           2.08419300      1.33080900      0.43159400
H           0.48978900      2.00973600      1.10854300
H           3.05308000     -0.46226600     -0.53762400
H           2.74237900     -2.25438800     -0.93104300
