17
b3lypvdz=-251.714209708431 
N          -3.45448200     -0.37877700      0.29295800
C          -2.14577200     -0.15807800     -0.34152900
C          -1.05568700     -0.35273100      0.73640600
C           0.35197500     -0.28033600      0.21418800
C          -2.13831900      1.24917700     -0.94167500
C           1.22367200     -1.29361200      0.22118300
H          -3.51373300     -1.34207400      0.63246800
H          -4.19048900     -0.29196100     -0.41240100
H          -1.93309300     -0.88491800     -1.15653300
H          -1.20898000     -1.33663800      1.21605100
H          -1.21904600      0.41044100      1.51986500
H           0.67040600      0.67911700     -0.21307000
H          -1.17587800      1.48654300     -1.42184900
H          -2.34057600      1.99784300     -0.15746000
H          -2.92005100      1.35096300     -1.71414100
H           2.23292500     -1.18388900     -0.18529400
H           0.95762900     -2.27047000      0.63993300
