18
b3lypvdz=-289.778636278611 
N          -3.53761500     -0.27823300      0.37473300
C          -2.21217000     -0.20109600     -0.24491200
C          -1.11700900     -0.41920600      0.81154700
C           0.26505800     -0.25101200      0.25336900
C           1.17960000     -1.22995000      0.13911100
C           2.53423500     -1.07459200     -0.40872500
C           3.28955000      0.03293700     -0.34146400
H          -3.72766600     -1.24504300      0.65185800
H          -4.25363100     -0.05497700     -0.32019600
H          -2.09984300      0.80920200     -0.67834400
H          -2.04709600     -0.91675000     -1.07905900
H          -1.22422400     -1.42752900      1.25171200
H          -1.29493900      0.30380800      1.62824100
H           0.51634400      0.74797100     -0.12708800
H           0.89966900     -2.24198100      0.45978200
H           2.95229200     -1.96169300     -0.90131000
H           2.94880700      0.92800100      0.18731600
H           4.27683800      0.07314300     -0.80747000
