17
b3lypvdz=-251.714870273105 
N          -3.42536900     -0.42002500      0.31313400
C          -2.10041900     -0.19790800     -0.28364900
C          -1.06585500     -0.12924400      0.86273200
C           0.35897000     -0.01458700      0.40314700
C          -2.15080800      1.09197700     -1.10458900
C           1.21248000      0.95190900      0.75603000
H          -3.43986600     -1.32392900      0.79276200
H          -4.12173500     -0.49916500     -0.43215200
H          -1.78382200     -1.02122700     -0.96384400
H          -1.17610700     -1.05579500      1.45991400
H          -1.32832300      0.71103900      1.52756100
H           0.70930700     -0.80223400     -0.27836500
H          -1.16439200      1.34181100     -1.52450600
H          -2.49137200      1.92805900     -0.47126800
H          -2.85925900      0.99272200     -1.94459900
H           2.24015700      0.97322200      0.38355200
H           0.91181300      1.75977500      1.43153800
