15
b3lypvdz=-196.394464588063 
C          -2.07721000     -0.19827200     -0.27326500
C          -1.05799300     -0.11970400      0.88361600
C           0.36940500     -0.02300000      0.42058200
C          -2.19630100      1.09019400     -1.09016400
C           1.23831900      0.93816400      0.74726100
H          -3.06176100     -0.46721200      0.14914600
H          -1.79479600     -1.03348800     -0.94080500
H          -1.17433500     -1.02873600      1.50331700
H          -1.29557300      0.74110500      1.53476700
H           0.70293900     -0.82936500     -0.24835100
H          -1.22399100      1.38917900     -1.51621400
H          -2.55224800      1.92758400     -0.46497100
H          -2.90631900      0.97371700     -1.92507900
H           2.26356100      0.93768800      0.36730800
H           0.95420200      1.76414600      1.40845300
