19
b3lypvdz=-273.74569600456 
C          -2.21764200     -0.12004100     -0.35632700
C          -1.11849800     -0.36830200      0.69628000
C           0.28830600     -0.24840900      0.17037600
C          -2.28655100      1.31878200     -0.88742800
C           1.19784500     -1.23898900      0.19644200
C           2.58646200     -1.16517800     -0.27860600
C           3.35633300     -0.06734100     -0.35132300
H          -3.19243400     -0.37655700      0.09851500
H          -2.07481600     -0.81932800     -1.19979000
H          -1.25329300     -1.37157500      1.13808900
H          -1.25559100      0.35103200      1.52855400
H           0.55628300      0.71594300     -0.27946000
H          -1.35671700      1.61911200     -1.40016000
H          -2.46782600      2.03627700     -0.06833900
H          -3.10798100      1.42915400     -1.61522000
H           0.88800700     -2.21507900      0.59296200
H           3.02597300     -2.12198100     -0.58908600
H           3.01023300      0.91280600     -0.00892700
H           4.37280400     -0.12272700     -0.74985200
