19
b3lypvdz=-273.741814687995 
C          -2.01379000     -0.09558200     -0.37897300
C          -1.05270200     -0.38521400      0.79672600
C           0.42629400     -0.36043500      0.45777700
C          -2.04620500      1.34701800     -0.88552500
C           1.08830500     -1.50867200      0.22019900
C           1.07218800      0.97052000      0.42143300
C           2.32185500      1.26822200      0.03574100
H          -3.02879500     -0.37934400     -0.04701400
H          -1.76156800     -0.77671100     -1.21075200
H          -1.30094900     -1.38589400      1.18585700
H          -1.25500900      0.32850800      1.61587300
H          -1.06706100      1.68161000     -1.26285800
H          -2.35580500      2.04584400     -0.08990300
H          -2.76820300      1.45481200     -1.71142700
H           2.15113900     -1.52921400     -0.02934200
H           0.57579800     -2.47211400      0.26665700
H           0.43808800      1.79361500      0.76654400
H           3.02116800      0.51236000     -0.32940600
H           2.68825300      2.29646900      0.06999200
