12
b3lypvdz=-157.109205524808 
C          -2.14349800     -0.03800500     -0.25280900
C          -1.08369900     -0.36900100      0.81139000
C           0.31635000     -0.25951300      0.27619000
C           1.17438000     -1.27498200      0.14512800
H          -3.15947500     -0.10619700      0.17006800
H          -2.01110600      0.98405300     -0.64891300
H          -2.07312900     -0.73025200     -1.10759300
H          -1.25303500     -1.38683500      1.20364900
H          -1.21019700      0.32467000      1.66338300
H           0.62651000      0.74058800     -0.05721700
H           2.17428300     -1.13712400     -0.27486300
H           0.90321700     -2.28930200      0.45888500
