18
b3lypvdz=-385.665897365419 
C           0.01332400     -0.47786100      0.01902900
C           0.32879100      0.92336100      0.00021700
C          -1.35415900     -0.87471100      0.02952500
C          -0.73746800      1.86654700     -0.00735900
C           1.07960000     -1.42101900      0.02660700
C           1.69626600      1.32024500     -0.01027500
C          -2.36333800      0.06432900      0.02189600
C          -2.05204700      1.44902400      0.00310100
C           2.39417400     -1.00345700      0.01615100
C           2.70546900      0.38124200     -0.00264500
H          -0.49509400      2.93335800     -0.02236100
H           0.83735900     -2.48786000      0.04160800
H           1.93505400      2.38759300     -0.02531700
H          -3.40841800     -0.25552600      0.03074500
H          -2.86108200      2.18380100     -0.00325600
H           3.20316800     -1.73828000      0.02251500
H           3.75057600      0.70100500     -0.01149000
H          -1.59301300     -1.94204200      0.04457000
