24
b3lypvdz=-539.216696857985 
C           2.58932600      0.80331600     -0.00000300
C           2.62690800     -0.64302000     -0.00000100
C           1.41935500     -1.35821900     -0.00000400
C           0.17607500     -0.70801300     -0.00000500
C           0.13849200      0.73832400     -0.00000300
C           1.34604500      1.45352200     -0.00000400
C          -1.13646200      1.39077000      0.00000200
C          -2.30125700      0.66488200      0.00000300
C          -2.26422300     -0.76329300     -0.00000000
C          -1.06306800     -1.42709100     -0.00000300
C           3.82847000      1.52239100     -0.00000200
C           3.90186000     -1.29547000      0.00000300
C           5.02962400      0.85859100      0.00000100
C           5.06665600     -0.56958400      0.00000500
H           1.44832500     -2.45265300     -0.00000400
H           1.31707600      2.54795600     -0.00000400
H          -1.16270600      2.48442300      0.00000500
H          -3.26683400      1.17648400      0.00000800
H          -3.20184000     -1.32448400      0.00000300
H          -1.03110300     -2.52066100     -0.00000500
H           5.96724200      1.41978000      0.00000100
H           3.79651000      2.61596200     -0.00000400
H           6.03223100     -1.08118900      0.00000700
H           3.92810000     -2.38912300      0.00000500
