30
b3lypvdz=-692.764931124759 
C           2.85489600      0.79329600     -0.31906800
C           2.88688300     -0.66049000     -0.31526500
C           1.67285900     -1.36961800     -0.17359000
C           0.44821300     -0.71429700     -0.04030100
C           0.41620600      0.73890600     -0.04454800
C           1.61049100      1.44782600     -0.18089900
C          -0.85397700      1.39578600      0.09062800
C          -2.01188000      0.67530400      0.21561000
C          -1.98031800     -0.75781900      0.22066600
C          -0.79145500     -1.42673500      0.09956700
C           4.06892200      1.50242500     -0.46072800
C           4.13128800     -1.31501900     -0.45343100
C           5.29356700      0.84710500     -0.59402400
C           5.32557200     -0.60609800     -0.58978800
C           6.53323800      1.55954100     -0.73388200
C           6.59575400     -1.26297800     -0.72496800
C           7.72209900      0.89062400     -0.85499000
C           7.75365900     -0.54249800     -0.84994600
H           1.69754300     -2.46393500     -0.16932000
H           1.58600300      2.54214000     -0.18305100
H          -0.87628700      2.48945800      0.09118400
H          -2.96988900      1.19075300      0.31768000
H          -2.91465200     -1.31420200      0.32698400
H          -0.76425300     -2.52029300      0.10782000
H           4.04423800      2.59674100     -0.46499500
H           4.15577400     -2.40933300     -0.45128100
H           6.50604100      2.65309900     -0.74212100
H           8.65643400      1.44700600     -0.96129400
H           6.61806200     -2.35664900     -0.72553400
H           8.71166800     -1.05794700     -0.95201700
