42
b3lypvdz=-999.85785820851 
C          -7.33942300      0.87354800     -0.00461300
C          -6.14883800      1.42102800      0.38455900
C          -4.89699200      0.79617500      0.04573000
C          -3.67314900      1.33056800      0.42979100
C          -2.44167800      0.70842500      0.09294700
C          -1.20458600      1.24141400      0.47788200
C           0.01508200      0.61936600      0.14059600
C           1.26249400      1.15144100      0.52544800
C           2.47181500      0.52952100      0.18731700
C           3.73095700      1.06162900      0.57127300
C           4.92712000      0.44041400      0.23220300
C           6.20671300      0.97511900      0.61718300
C           7.36919500      0.34441000      0.27060500
C           7.33941100     -0.87361500     -0.49132000
C           6.14883100     -1.42106300     -0.88054800
C           4.89698400     -0.79618900     -0.54176000
C           3.67314300     -1.33055800     -0.92586400
C           2.44167200     -0.70839800     -0.58904900
C           1.20458100     -1.24137500     -0.97400500
C          -0.01508800     -0.61932600     -0.63672400
C          -1.26250200     -1.15140600     -1.02156400
C          -2.47182400     -0.52949900     -0.68341400
C          -3.73097000     -1.06162700     -1.06733100
C          -4.92713200     -0.44043500     -0.72822100
C          -6.20673100     -0.97517600     -1.11313800
C          -7.36921100     -0.34448900     -0.76651700
H          -8.27923900      1.36084000      0.26576400
H          -6.12584500      2.35042100      0.95938300
H          -3.65109200      2.26089900      1.00385600
H          -1.18216200      2.17132800      1.05227300
H           1.28556400      2.08132200      1.09985200
H           3.75417400      1.99192000      1.14531100
H           6.22889000      1.90485200      1.19132500
H           8.33066800      0.76497000      0.57480000
H           8.27922800     -1.36092200     -0.76166600
H           6.12584200     -2.35045000     -1.45538200
H           3.65108800     -2.26088500     -1.49993300
H           1.18216000     -2.17128800     -1.54839800
H          -1.28556800     -2.08128700     -1.59596700
H          -3.75418600     -1.99192100     -1.64136500
H          -6.22891000     -1.90492100     -1.68726100
H          -8.33068800     -0.76508000     -1.07065900
