72
b3lypvdz=-2067.798997853331 
C           6.24505600     -1.27286600     -0.17381900
C           6.38220600      0.08550500     -0.15453000
C           5.23883300      0.95832100     -0.21140100
C           3.93644000      0.36727900     -0.28934100
C           3.79231800     -1.05368700     -0.30988000
C           4.94997900     -1.89645700     -0.25288100
C           2.49724700     -1.63694700     -0.38931800
C           4.78498800     -3.29019800     -0.27692400
C           3.51648000     -3.88611900     -0.35615800
C           2.35249200     -3.05224600     -0.41265700
C           3.33387000     -5.31374900     -0.38497600
C           2.09054700     -5.87295000     -0.46379100
C           0.90242700     -5.06151300     -0.52107900
C           1.05190100     -3.63675300     -0.49437800
C          -0.10146800     -2.80490300     -0.55121900
C           0.04299800     -1.38081500     -0.52857500
C           1.33770500     -0.79905800     -0.44782900
C           2.78468700      1.20121600     -0.34693500
C           1.48128600      0.61563500     -0.42671700
C           0.32953700      1.44812900     -0.48551900
C          -0.96517400      0.86638400     -0.56630600
C          -1.10875600     -0.54831000     -0.58740100
C          -1.39752100     -3.38584300     -0.63168000
C          -2.55465900     -2.54947300     -0.68789800
C          -2.41216000     -1.13391900     -0.66716500
C          -0.38522700     -5.61443800     -0.60259500
C          -1.53631000     -4.81173400     -0.65664400
C          -3.86168700     -3.13029200     -0.76615700
C          -4.98475800     -2.28945900     -0.82056200
C          -4.86628800     -0.89098300     -0.80271200
C          -3.56388900     -0.29994500     -0.72477800
C          -2.12470100      1.70431700     -0.62479000
C          -3.41973800      1.12100300     -0.70425700
C          -2.86271100     -5.36499500     -0.73733100
C          -3.96885600     -4.56540200     -0.78725900
C          -4.57739300      1.96377400     -0.76125600
C          -5.87247500      1.34021300     -0.84033000
C          -6.00964200     -0.01816700     -0.85960100
C          -4.41240100      3.35752200     -0.73720200
C          -3.14392600      3.95349400     -0.65795300
C          -1.97993100      3.11961000     -0.60146400
C          -0.67933400      3.70409600     -0.51970900
C           0.47401500      2.87222400     -0.46288400
C           1.77006800      3.45316000     -0.38237700
C           2.92721500      2.61678900     -0.32619500
C           4.23423200      3.19759100     -0.24789900
C           5.35734000      2.35678400     -0.19351400
C           4.34139100      4.63270100     -0.22675300
C           1.90885900      4.87905200     -0.35738000
C           3.23525500      5.43230700     -0.27666400
C          -0.52987300      5.12886200     -0.49298000
C           0.75778200      5.68177700     -0.41143800
C          -2.96133100      5.38113800     -0.62911600
C          -1.71799400      5.94030600     -0.55027000
H           7.12782500     -1.91630700     -0.12750600
H           7.37551800      0.53754900     -0.09143400
H           5.67089000     -3.93047400     -0.23235700
H           4.22169700     -5.95024700     -0.34205800
H           1.97709300     -6.96058600     -0.48503800
H          -0.49478900     -6.70311800     -0.62509500
H          -5.98130800     -2.73635400     -0.88296500
H          -2.97050600     -6.45316100     -0.75926400
H          -4.96646600     -5.00837200     -0.84943000
H          -6.75523700      1.98365800     -0.88665500
H          -7.00296700     -0.47018400     -0.92270700
H          -5.29834500      3.99775200     -0.78177200
H           6.35387100      2.80371200     -0.13108700
H           5.33900500      5.07566000     -0.16455400
H           3.34307200      6.52047100     -0.25468600
H           0.86736800      6.77045400     -0.38891600
H          -3.84915700      6.01763500     -0.67203100
H          -1.60451900      7.02794000     -0.52900100
