36
b3lypvdz=-921.375216642848 
C           0.06158200     -1.23861200      1.72899900
C           1.49142900     -1.23860200      1.72899800
C           2.20630400      0.00000600      1.72900200
C           1.49142200      1.23861100      1.72899600
C           0.06157500      1.23860000      1.72899800
C          -0.65330500     -0.00001000      1.72899800
C           2.20370600     -2.47166700      1.72900200
C           1.46387100     -3.69155900      1.72899800
C           0.08912200     -3.69155700      1.72899100
C          -0.65071300     -2.47166700      1.72899200
C          -2.07677900     -0.00000200      1.72900700
C          -2.76386000     -1.25004900      1.72900600
C          -2.07682500     -2.44092500      1.72899400
C          -2.76385100      1.25004800      1.72900700
C          -2.07681400      2.44092100      1.72900700
C          -0.65070400      2.47166500      1.72899700
C           0.08912500      3.69156000      1.72899300
C           1.46387300      3.69155700      1.72899300
C           2.20371200      2.47167000      1.72899300
C           3.62982500      2.44092500      1.72899800
C           4.31685800      1.25004800      1.72900200
C           3.62978000      0.00000200      1.72900400
C           4.31685700     -1.25004700      1.72901100
C           3.62981700     -2.44092000      1.72900600
H           2.01331100     -4.63685500      1.72899400
H          -0.46031800     -4.63685300      1.72898600
H          -2.62088100     -3.38928900      1.72899100
H          -3.85766300     -1.24667100      1.72900900
H          -3.85765500      1.24666800      1.72902000
H          -2.62087800      3.38928000      1.72900900
H          -0.46031300      4.63685800      1.72899000
H           2.01330700      4.63685900      1.72898800
H           4.17388200      3.38928600      1.72899700
H           5.41066300      1.24666500      1.72900800
H           5.41066100     -1.24666900      1.72901000
H           4.17387800     -3.38928000      1.72900800
