140
chgs=0 nmr=1 alpha=621.38 b3lypd3vdz=-3822.132488966759
     N      5.62006900      4.82024400     -0.78945300   -0.1840  235.1600
     C      5.13491300      4.75784200      0.58520300    0.1010  142.7100
     C      4.42816700      3.44165500      0.90960200    0.1230   16.8800
     O      4.96585600      2.35464500      0.65997400   -0.3160  -11.2900
     N      3.18889800      3.51260400      1.46048300   -0.1070  134.1400
     C      2.37387400      2.32220400      1.61148600   -0.0150  131.9400
     C      0.90309800      2.70558800      1.48207800    0.1710   21.7500
     O      0.49730800      3.84917100      1.74779800   -0.3420   10.7600
     C      2.64604300      1.59202700      2.95986300    0.1600  149.0400
     C      2.08099300      0.19184300      3.00119000   -0.1020   65.9400
     C      2.64124900     -0.80650200      2.18806200    0.0500   60.9600
     C      0.98478700     -0.15759700      3.80222500    0.0190   64.3300
     C      2.12684400     -2.09975400      2.15996500    0.0180   77.5800
     C      0.45840900     -1.45207700      3.78876400    0.0300   80.7700
     C      1.01757300     -2.42980500      2.95411900    0.0440   37.3900
     O      0.45781100     -3.67340900      2.95139400   -0.2100  213.2800
     N      0.09590900      1.69896100      1.09292800   -0.1100  128.3400
     C     -1.35040600      1.82307400      1.05143700    0.0350  141.8900
     C     -1.91266100      0.47574700      1.51598700    0.2130   22.1300
     O     -1.83473500     -0.51030800      0.76676900   -0.3260  -30.2700
     C     -1.88604400      2.12791800     -0.35750600    0.0270  155.0900
     C     -3.36751900      2.38270000     -0.31394100    0.1740   15.4000
     O     -4.04737800      2.27804100      0.70316500   -0.2950  -48.4900
     O     -3.88673200      2.72235700     -1.49354900   -0.1570  127.2200
     N     -2.50097500      0.37414800      2.72558200   -0.2370  109.7400
     C     -3.06373300     -0.92603300      3.11589400    0.0580  126.4000
     C     -4.17805900     -1.39590300      2.16520100    0.1590   21.3900
     O     -4.36037100     -2.59608600      1.96417700   -0.2920  -48.5300
     C     -3.54837800     -0.67924300      4.55731800    0.0320  160.3000
     C     -3.88228200      0.82067400      4.57630200   -0.0180  164.0900
     C     -2.78872600      1.44460900      3.69697100    0.0970  143.5100
     N     -4.93363400     -0.42764000      1.58075700   -0.1480  133.7600
     C     -5.95948400     -0.75221400      0.59261500    0.0860  134.4600
     C     -5.44151000     -1.47945800     -0.66468000    0.1340   26.9900
     O     -6.22447300     -2.15670900     -1.31887500   -0.2740  -51.7200
     C     -6.72756700      0.54924900      0.23114400   -0.0330  164.2600
     C     -7.17337400      0.66394000     -1.24017400    0.0360  158.8000
     C     -7.71910700      2.04178000     -1.51109300    0.1480   26.1600
     O     -6.70717400      2.98653200     -1.52748800   -0.2090  140.0300
     O     -8.86561200      2.36257200     -1.68259300   -0.2040  -94.4800
     N     -4.14046600     -1.27532500     -1.02542100   -0.1650  147.6400
     C     -3.54704500     -2.02118100     -2.12210900    0.0760  130.8900
     C     -2.54583000     -3.08323800     -1.64360400    0.1510   21.0100
     O     -1.85309500     -3.71079300     -2.46196700   -0.3390   -4.9700
     C     -2.83865400     -1.09334300     -3.13791300    0.0420  123.1300
     O     -1.71157200     -0.46865500     -2.50906600   -0.2870  286.1300
     C     -3.77042700     -0.02034700     -3.68408800    0.0430  170.9100
     N     -2.40611700     -3.22869000     -0.31415700   -0.1220  134.1000
     C     -1.36195200     -4.02474300      0.28754500    0.1430  145.7400
     C      0.07658100     -3.63302500     -0.06371700    0.1190   23.1400
     O      0.98872900     -4.40747700      0.25667400   -0.3370  -11.8400
     N      0.28998300     -2.47519300     -0.72792000   -0.1030  142.1100
     C      1.51626100     -2.25144200     -1.46470900    0.0050  130.2000
     C      1.94452300     -0.78614800     -1.39401500    0.2210   18.6600
     O      1.25773700      0.07868800     -0.82986800   -0.3400  -14.8900
     C      1.36764400     -2.75076500     -2.94327200    0.1000  115.6100
     O      0.17144200     -2.23788400     -3.52280500   -0.3160  275.7700
     C      1.41511800     -4.27322600     -3.04151200    0.0150  169.1600
     N      3.11920100     -0.50297800     -1.99710300   -0.1020  126.2800
     C      3.96600500      0.65521900     -1.66451400   -0.0930  134.6800
     C      3.56573400      1.99100700     -2.32955000    0.2110   25.9500
     O      4.40776100      2.72377400     -2.83517000   -0.2790  -49.4900
     C      5.43981600      0.31981700     -1.99604800    0.1540  163.3200
     C      5.83472800     -1.03552900     -1.49245600   -0.1510   76.4600
     C      5.96040300     -2.19044400     -2.23878400    0.0200   73.4300
     C      6.02882200     -1.42023500     -0.11304400    0.0570   66.5200
     N      6.20609100     -3.26823000     -1.40247700   -0.1070  130.5000
     C      6.25689000     -2.82576100     -0.09486200    0.0720   56.9100
     C      6.04517000     -0.70092200      1.09900300   -0.0440   69.4600
     C      6.47647300     -3.53088800      1.09722200    0.0260   83.1800
     C      6.26555800     -1.40055700      2.28172000    0.0440   70.9800
     C      6.47307900     -2.79864500      2.28192400    0.0400   68.4900
     N      2.23975000      2.31015200     -2.25621100   -0.1750  143.9900
     C      1.75108000      3.61127200     -2.68936100    0.1550  150.9800
     C      1.57951000      4.49418700     -1.45791800    0.1430   25.9300
     O      0.32592200      4.42393200     -0.96488600   -0.1780  121.1300
     O      2.47207400      5.11215100     -0.91981300   -0.2390  -68.3900
     H      6.12687800      3.95363700     -0.98837800    0.0820   30.4100
     H      4.80971300      4.78474700     -1.41324500    0.0850   30.1000
     H      5.99192100      4.83528500      1.27865100    0.0310   28.4500
     H      4.47088800      5.61463100      0.77609100    0.0140   28.3800
     H      2.70326200      4.40388300      1.49805600    0.0930   25.3400
     H      2.62665900      1.62557800      0.80075800    0.0200   27.1500
     H      3.74194000      1.55804800      3.06079500    0.0290   28.1000
     H      2.25480400      2.20953200      3.78427000   -0.0070   29.4100
     H      3.50919700     -0.57500100      1.56881300   -0.0330   24.8200
     H      0.53072400      0.59654600      4.45224800   -0.0550   24.9800
     H      2.57636900     -2.86316600      1.52270900   -0.0130   25.8600
     H     -0.38490100     -1.72717300      4.42546000   -0.0310   25.2900
     H      0.82974000     -4.18288600      2.20163900    0.1550   26.0200
     H      0.50171900      0.84255900      0.71014900    0.1400   24.7700
     H     -1.61824400      2.64142900      1.72803900    0.0080   26.7900
     H     -1.37818800      3.00359900     -0.78403000    0.0530   28.0700
     H     -1.69838600      1.27999700     -1.04014500    0.0860   27.2300
     H     -4.86381500      2.83353000     -1.40269900    0.1680   22.2800
     H     -2.29446400     -1.70634500      3.05994600    0.0290   27.1800
     H     -4.39499500     -1.32652200      4.82533200    0.0310   29.4000
     H     -2.72213100     -0.89732400      5.25359100    0.0300   29.2400
     H     -4.86976500      0.99165900      4.11756200    0.0240   29.3300
     H     -3.89939700      1.24915900      5.58845900    0.0210   29.4800
     H     -1.88095000      1.68358400      4.27725900    0.0390   27.9400
     H     -3.13197400      2.35015600      3.17986000    0.0530   27.0900
     H     -4.60562200      0.53539000      1.61304400    0.1300   25.1200
     H     -6.64650400     -1.48987800      1.03033100    0.0370   27.4200
     H     -7.60781200      0.64120300      0.88646700    0.0340   29.5200
     H     -6.07675400      1.40620700      0.44970100    0.0260   28.9100
     H     -6.30936800      0.50902900     -1.90501400    0.0540   29.5500
     H     -7.93760200     -0.07880300     -1.49667500    0.0510   29.1100
     H     -7.13698000      3.84940200     -1.67811300    0.1670   26.3800
     H     -3.49921500     -0.77167800     -0.41383600    0.1140   25.1900
     H     -4.37039500     -2.54615300     -2.62938300    0.0420   27.1400
     H     -2.49375800     -1.73898600     -3.96221300    0.0150   27.0900
     H     -0.90145700     -0.86779300     -2.89008900    0.1520   27.4100
     H     -3.25604400      0.55401500     -4.46903900    0.0180   30.3300
     H     -4.68470100     -0.46682000     -4.10725100    0.0190   30.7500
     H     -4.05243100      0.68147300     -2.88649100    0.0300   30.0200
     H     -3.05842100     -2.77054500      0.31517000    0.1230   24.3300
     H     -1.46797500     -3.96920800      1.37905700    0.0560   27.4500
     H     -1.43761800     -5.08369100     -0.00649700    0.0560   27.5300
     H     -0.46942900     -1.80639800     -0.84563700    0.1140   24.9000
     H      2.30703900     -2.84318500     -0.97734500    0.0460   27.5800
     H      2.19483500     -2.32227600     -3.53339200   -0.0090   27.7900
     H     -0.55586800     -2.85863800     -3.27475200    0.1920   26.9200
     H      1.34630900     -4.57282300     -4.09846200    0.0240   30.1900
     H      2.34805800     -4.66961100     -2.61183600    0.0150   30.6500
     H      0.56825000     -4.72123900     -2.50165900    0.0570   29.6600
     H      3.66780700     -1.30952900     -2.29188100    0.1120   26.2700
     H      3.89511900      0.83612100     -0.58101700    0.1240   26.0300
     H      5.58913200      0.39329400     -3.08413800    0.0050   28.7100
     H      6.04567800      1.11047900     -1.53423800    0.0470   27.2700
     H      5.91247200     -2.32371400     -3.31808600   -0.0160   24.5900
     H      6.40146400     -4.21126800     -1.70734100    0.0830   24.3400
     H      5.87844000      0.37771100      1.10234200   -0.0240   22.0800
     H      6.64456800     -4.61052800      1.09693000   -0.0400   24.2400
     H      6.27144500     -0.86203300      3.23205600   -0.0350   24.3900
     H      6.63657100     -3.31606600      3.23007200   -0.0320   24.2400
     H      1.62558800      1.68765800     -1.72517000    0.1070   23.4700
     H      0.33698600      4.72387000     -0.02600200    0.1720   24.4800
     H      2.50888500      4.05603500     -3.34563500    0.0540   26.8500
     H      0.79424100      3.49915800     -3.21901800    0.0330   28.4700
