27
mp2631gd=-685.95885144848 
O          -2.47398000      1.29106000     -0.10282500
H          -2.54662400      0.29621600      0.00619700
H          -3.38460800      1.62240500     -0.13751400
O           1.58580500     -2.02172300      0.16713800
H           1.00185300     -1.79387900      0.92160000
H           0.97828500     -2.00714500     -0.60330800
O          -0.40908900      1.57647600      1.79588200
H          -1.21678400      1.66415000      1.24461500
H           0.31660200      1.84779700      1.19284300
O           3.31686300      0.02672300     -0.09183700
H           3.88061200     -0.02802400      0.69465100
H           2.73191800     -0.78186100     -0.03792600
O          -0.31082000     -1.09041900      2.07289400
H          -0.34480500     -1.30743800      3.01735700
H          -0.29818900     -0.08903100      2.02581300
O          -0.43912400      1.08659600     -2.04805500
H           0.30135200      1.45596200     -1.51889000
H          -1.23654200      1.31503300     -1.52375500
O          -0.41023400     -1.58418900     -1.80049800
H          -0.37112600     -0.59468600     -1.95635800
H          -0.44741600     -1.98655700     -2.68200300
O           1.52706900      2.01501400     -0.22005300
H           1.99481400      2.83740500     -0.43300600
H           2.23566400      1.31156000     -0.15331400
O          -2.39634200     -1.36825600      0.18859600
H          -1.83807100     -1.63413200     -0.57471000
H          -1.78461000     -1.44405900      0.95332400
