24
mp2631gd=-609.74356703768 
O           0.00000000      1.98739600      1.35350200
H           0.00000000      2.88671400      1.71631600
H           0.00000000      2.09374700      0.35658700
O           1.98739600      0.00000000     -1.35350200
H           2.88671400      0.00000000     -1.71631600
H           2.09374700      0.00000000     -0.35658700
O           2.00696400      0.00000000      1.32994000
H           1.43262400      0.77164000      1.52680500
H           1.43262400     -0.77164000      1.52680500
O           0.00000000     -1.98739600      1.35350200
H           0.00000000     -2.88671400      1.71631600
H           0.00000000     -2.09374700      0.35658700
O          -1.98739600      0.00000000     -1.35350200
H          -2.88671400      0.00000000     -1.71631600
H          -2.09374700      0.00000000     -0.35658700
O          -2.00696400      0.00000000      1.32994000
H          -1.43262400     -0.77164000      1.52680500
H          -1.43262400      0.77164000      1.52680500
O           0.00000000     -2.00696400     -1.32994000
H          -0.77164000     -1.43262400     -1.52680500
H           0.77164000     -1.43262400     -1.52680500
O           0.00000000      2.00696400     -1.32994000
H          -0.77164000      1.43262400     -1.52680500
H           0.77164000      1.43262400     -1.52680500
