15
mp2631gd=-381.06464166465 
O          -2.20309200     -0.77160200     -0.08353200
H          -1.93057000      0.18135100     -0.07158200
H          -2.82854800     -0.85020100      0.65200300
O           1.30222000      1.94475000     -0.01999500
H           1.65011000      1.01655900     -0.04410800
H           1.69480600      2.32693300      0.77931500
O           0.06409500     -2.33135900     -0.01964700
H          -0.01899000     -2.85779600      0.78927500
H          -0.77815600     -1.81257700     -0.07287100
O          -1.43550500      1.85833500      0.03860600
H          -0.44541500      1.90901300      0.05753900
H          -1.68217100      2.33866000     -0.76630700
O           2.21865100     -0.63733400      0.01285300
H           1.44631500     -1.25835900      0.03359600
H           2.69362500     -0.87535000     -0.79773300
