30
mp2631gd=-762.18162482846 
O          -0.71248700     -2.22988700      1.37127800
H          -1.25853100     -1.39907000      1.53737600
H          -1.06773500     -2.89879200      1.97702100
O          -2.20154600     -0.04893900      1.60495100
H          -2.51643300      0.06640500      0.68581200
H          -1.64024300      0.75359400      1.76031100
O          -0.98591500     -2.06518400     -1.41947200
H          -0.05330300     -1.85687800     -1.65094500
H          -0.93542500     -2.33787000     -0.47615600
O           2.00025800     -1.52377200      1.14556900
H           1.09460000     -1.83744200      1.36490900
H           2.04590600     -1.61713600      0.16999300
O          -0.54675800      2.15791100      1.65193200
H          -0.64485500      2.43450000      0.71961900
H           0.38141400      1.84542100      1.70076900
O           1.70580800     -1.29202800     -1.66858900
H           1.76246500     -0.28998200     -1.65649900
H           2.32709300     -1.58017500     -2.35515400
O           2.09451100      1.13867000      1.35814000
H           2.83921700      1.37847400      1.93109200
H           2.06348100      0.13556600      1.36221700
O          -0.78280100      2.34293900     -1.22977600
H          -1.41993800      1.59153000     -1.33309200
H          -1.15323400      3.08086200     -1.73782000
O          -2.42952500      0.15199700     -1.25760400
H          -1.87703800     -0.68321500     -1.37824600
H          -3.22022900      0.01806700     -1.80316000
O           1.87889900      1.36490200     -1.43422800
H           2.10850500      1.43922800     -0.48130800
H           0.98787900      1.77110900     -1.49090700
