24
cc2631gd=-609.800495649868 
O           1.78095175     -3.30650854     -2.55774809
O          -1.78095175      3.30650854     -2.55774809
H           2.58685152     -4.80273911     -3.24336719
H          -2.58685152      4.80273911     -3.24336719
H           1.87625536     -3.48344887     -0.67385176
H          -1.87625536      3.48344887     -0.67385176
O           3.30650854      1.78095175      2.55774810
O          -3.30650854     -1.78095175      2.55774810
H           4.80273911      2.58685152      3.24336720
H          -4.80273911     -2.58685152      3.24336720
H           3.48344887      1.87625536      0.67385178
H          -3.48344887     -1.87625536      0.67385178
O           3.33906459      1.79848709     -2.51322238
O          -3.33906459     -1.79848709     -2.51322238
H           3.07499718      0.00000000     -2.88524331
H          -3.07499718      0.00000000     -2.88524331
H           1.69202810      2.56761535     -2.88524331
H          -1.69202810     -2.56761535     -2.88524331
O          -1.79848710      3.33906459      2.51322237
O           1.79848710     -3.33906459      2.51322237
H          -2.56761535      1.69202810      2.88524330
H           2.56761535     -1.69202810      2.88524330
H           0.00000000      3.07499719      2.88524330
H           0.00000000     -3.07499719      2.88524330
