12
cc2631gd=-304.87968426217 
O           3.52877774     -1.02600802     -0.06960608
O          -3.52877774      1.02600802     -0.06960608
H           2.83231916      0.71131034     -0.09146643
H          -2.83231916     -0.71131034     -0.09146643
H           4.51018211     -1.10648934      1.47493700
H          -4.51018211      1.10648934      1.47493700
O          -1.02604877     -3.52862116      0.06960248
O           1.02604877      3.52862116      0.06960248
H           0.71120838     -2.83202372      0.09142882
H          -0.71120838      2.83202372      0.09142882
H          -1.10643669     -4.51018768     -1.47484233
H           1.10643669      4.51018768     -1.47484233
