6
cc2631gd=-152.421184259964 
O          -0.12610832      0.00007680     -2.79274701
H           1.51181301     -0.00084426     -3.60572445
H           0.26299118      0.00005563     -0.99155901
O           0.13552278     -0.00009027      2.70877410
H          -0.96123244      1.44798468      2.96556553
H          -0.96301084     -1.44698215      2.96465064
