15
cc2631gd=-381.101348798271 
O           3.96017022     -0.13069591     -1.91434596
H           3.63978058     -0.11128928     -0.06890438
H           5.11512081      1.26328792     -2.18625756
O          -2.08004337     -0.03673561      3.89505742
H          -2.92033597     -0.08304240      2.22094846
H          -2.74563766      1.47068811      4.69392289
O          -0.61404163     -0.02172948     -4.38879333
H          -0.56874531      1.50823666     -5.39289417
H           1.07323336     -0.11784518     -3.58359338
O           3.04632909      0.09124615      3.18197085
H           1.19605635      0.12075841      3.47644775
H           3.61132205     -1.42900956      4.03309015
O          -4.32173724      0.02360185     -0.77217070
H          -2.99562017      0.06858859     -2.09441773
H          -5.25718757     -1.51077600     -1.12561709
