53
b3lypvdz=-968.166499546827 
C           0.76541400     -0.31672300     -0.06610400
C           0.03271000      0.99870800      0.31555100
C           2.23818200     -0.41371800      0.49011200
C          -1.35668900      0.98298600     -0.33687500
C          -2.24969200     -0.21314300      0.09433400
C          -3.54038400      0.12538500     -0.73977400
C           2.26822700     -0.53951900      2.03396900
C          -2.56533000     -0.21895600      1.60488500
C          -5.06801200     -1.95464600     -1.02197900
O           6.06801100     -0.31698100     -1.33051300
O          -5.55069300     -0.21286900      0.53678800
C          -0.08791300     -1.56786500      0.25195500
C           0.84832200      2.22470700     -0.12219200
C           2.92471400     -1.65514200     -0.14316300
C          -1.52663500     -1.51150000     -0.30113400
C          -2.27659200      2.20949300     -0.21809800
C           2.29527900      2.17783700      0.39001400
C           4.45495800     -1.62824200     -0.10854800
C          -3.67913700      1.66803300     -0.61476600
C          -4.79763700     -0.63601100     -0.32135100
C           5.00672200     -0.35419100     -0.72590900
C           4.19799000      0.85770500     -0.50003900
C           2.98189300      0.86652200      0.09000400
H           0.87866700     -0.27784300     -1.16806700
H          -0.08650800      1.04233300      1.41373500
H          -1.17670900      0.83417100     -1.42111300
H           0.40228800     -2.46131400     -0.16376100
H          -0.12795300     -1.72489200      1.34227600
H           0.85637900      2.27979600     -1.22680900
H           0.36512500      3.14805200      0.23708600
H           2.56246200     -2.56654600      0.35767300
H           2.60700800     -1.73070800     -1.19794000
H           1.70580300     -1.42260000      2.37151000
H           3.30267400     -0.64676000      2.39472100
H           1.83391400      0.33658000      2.53707000
H          -2.07828900     -2.39567600      0.06257200
H          -1.49716100     -1.58526600     -1.40357000
H          -2.28296300      2.60166900      0.81263100
H          -1.95150100      3.03403100     -0.86965700
H           2.88381000      3.00612700     -0.03391500
H           2.29083700      2.32901400      1.48657700
H           4.67058800      1.79347300     -0.81544700
H           4.82674700     -1.67741600      0.93150800
H           4.88996400     -2.48814800     -0.63850700
H          -3.31069900     -0.14992000     -1.78373300
H          -3.02388900      0.72061200      1.94514400
H          -3.27770700     -1.02211000      1.84915200
H          -1.66217500     -0.38777600      2.20955700
H          -4.02808700      2.09930300     -1.56538900
H          -4.43915600      1.90507700      0.14243600
H          -4.17305700     -2.59914100     -1.01188000
H          -5.91279900     -2.46727200     -0.54352500
H          -5.30948800     -1.76521400     -2.08313500
