62
b3lypvdz=-1161.58245
C      -8.35217793     15.88238476      0.00000000
C      -8.32771761     14.53469672      0.00000000
C      -7.12235753     13.73390159      0.00000000
C      -7.10804335     12.37233993      0.00000000
C      -5.91730441     11.56887027      0.00000000
C      -5.90898664     10.20254416      0.00000000
C      -4.72426980      9.39734664      0.00000000
C      -4.71921561      8.02875863      0.00000000
C      -3.53791942      7.22213381      0.00000000
C      -3.53519598      5.85232243      0.00000000
C      -2.35605486      5.04452560      0.00000000
C      -2.35497732      3.67403341      0.00000000
C      -1.17715115      2.86539460      0.00000000
C      -1.17706886      1.49455372      0.00000000
C       0.00012640      0.68547448      0.00000000
C      -0.00012541     -0.68547397      0.00000000
C       1.17706986     -1.49455320      0.00000000
C       1.17715214     -2.86539409      0.00000000
C       2.35497831     -3.67403290      0.00000000
C       2.35605585     -5.04452508      0.00000000
C       3.53519697     -5.85232192      0.00000000
C       3.53792041     -7.22213330      0.00000000
C       4.71921660     -8.02875812      0.00000000
C       4.72427079     -9.39734613      0.00000000
C       5.90898763    -10.20254365      0.00000000
C       5.91730540    -11.56886975      0.00000000
C       7.10804434    -12.37233942      0.00000000
C       7.12235852    -13.73390107      0.00000000
C       8.32771860    -14.53469621      0.00000000
C       8.35217892    -15.88238425      0.00000000
H      -7.42769148     16.46809074      0.00000000
H      -9.29344278     16.43596122      0.00000000
H      -9.27722545     13.98502763      0.00000000
H      -6.16682054     14.27325896      0.00000000
H      -8.06698888     11.83842680      0.00000000
H      -4.95688760     12.09944018      0.00000000
H      -6.87074288      9.67399384      0.00000000
H      -3.76172288      9.92415889      0.00000000
H      -5.68260081      7.50326116      0.00000000
H      -2.57401559      7.74651360      0.00000000
H      -4.49965377      5.32883371      0.00000000
H      -1.39124725      5.56727226      0.00000000
H      -3.32013321      3.15185582      0.00000000
H      -0.21178845      3.38713731      0.00000000
H      -2.14260138      0.97309093      0.00000000
H       0.96572768      1.20679328      0.00000000
H      -0.96572669     -1.20679277      0.00000000
H       2.14260238     -0.97309041      0.00000000
H       0.21178944     -3.38713680      0.00000000
H       3.32013420     -3.15185531      0.00000000
H       1.39124825     -5.56727175      0.00000000
H       4.49965476     -5.32883319      0.00000000
H       2.57401658     -7.74651309      0.00000000
H       5.68260180     -7.50326065      0.00000000
H       3.76172387     -9.92415837      0.00000000
H       6.87074387     -9.67399333      0.00000000
H       4.95688860    -12.09943966      0.00000000
H       8.06698987    -11.83842629      0.00000000
H       6.16682153    -14.27325845      0.00000000
H       9.27722644    -13.98502712      0.00000000
H       7.42769247    -16.46809023      0.00000000
H       9.29344377    -16.43596071      0.00000000
