40
b3lypvdz=-1224.982016169959 
C           5.54741900     -2.49699200      0.38566900
N           4.10608100     -2.61907600      0.21662300
C           3.38439900     -1.39946500      0.55221800
C           1.90016200     -1.54907700      0.21839400
C           1.04100700     -0.33189100      0.59496600
H           0.97835300     -0.25693900      1.69624900
C           1.58716300      0.97660200      0.08429000
C           2.32048200      1.90578200      0.78225100
C           2.78907900      2.98604500     -0.02872200
C           2.40252200      2.86390500     -1.33792600
S           1.46074600      1.42486700     -1.60311500
O          -0.25961800     -0.62484600      0.05772000
C          -1.37812600     -0.00580000      0.54974300
C          -1.38175700      0.98987200      1.50943200
C          -2.61193600      1.53787800      1.95767300
C          -3.81375900      1.10349100      1.44895300
C          -3.84236700      0.08880600      0.44890400
C          -5.06150700     -0.38566300     -0.11146800
C          -5.06629700     -1.36779800     -1.08094000
C          -3.84549300     -1.92360500     -1.53754700
C          -2.64405400     -1.48902300     -1.01464600
C          -2.61088100     -0.47900500     -0.01513400
H           6.03188100     -3.46286700      0.17181600
H           5.86951100     -2.16381200      1.39915600
H           5.94408000     -1.76322700     -0.33634100
H           3.76172100     -3.38434000      0.79962700
H           3.51190400     -1.09123900      1.61882200
H           3.81570100     -0.58084500     -0.04779400
H           1.48008000     -2.42430100      0.74539500
H           1.79098800     -1.74325300     -0.86087100
H           2.53030100      1.81289100      1.85000600
H           3.37695700      3.82198200      0.35263200
H           2.59627600      3.54454100     -2.16498000
H          -0.45070800      1.38003500      1.91600900
H          -2.58874200      2.32310500      2.71741700
H          -4.75446100      1.53309900      1.80199800
H          -5.99852200      0.04978500      0.24705600
H          -6.00992100     -1.72330800     -1.50259200
H          -3.85701200     -2.69962200     -2.30707500
H          -1.70298100     -1.91284100     -1.36431800
