15
b3lypvdz=-233.523478156168 
O          -0.76701600     -0.30747000      0.23419000
C           2.90880400     -0.13762500      0.96564100
C           1.47805700      0.31192100      0.66338000
C           0.86636000     -1.15821800     -1.34956700
C           0.57157900     -0.79404900      0.10631900
H          -1.36029300     -0.98446600     -0.12388900
H           3.43924400     -0.49372400      0.06651400
H           2.92202200     -0.96186700      1.70016800
H           3.50155700      0.68720400      1.39320600
H           1.47257500      1.15783700     -0.04752300
H           0.99851200      0.68015100      1.58561500
H           1.90074700     -1.51373700     -1.48812400
H           0.70039400     -0.28178300     -1.99744300
H           0.20010900     -1.96821400     -1.69326600
H           0.70815000     -1.69955900      0.73557800
