16
b3lypvdz=-362.861240277131 
O           2.08423000      2.63037600      0.69174200
O           0.26195300      2.07090100     -0.50121100
N           3.14577700     -0.32315700     -0.66724900
C           2.78229800     -0.13587200      0.73461500
C           2.72906700     -1.61028900     -1.21167400
C           1.33986800      0.37878000      0.88068400
C           1.14211300      1.74785000      0.26245900
H           1.87803200      3.47114100      0.24229900
H           4.15621200     -0.23073400     -0.76581600
H           2.88837500     -1.06669200      1.33109700
H           3.45744300      0.61247000      1.17334500
H           3.08165600     -2.48195800     -0.62017000
H           1.62933000     -1.66946600     -1.25975500
H           3.10572400     -1.71746100     -2.23981600
H           0.61043900     -0.29782300      0.41528800
H           1.09218100      0.45253400      1.95376100
