14
b3lypvdz=-158.333968519964 
C           1.12117700     -1.18292700     -1.14938600
C           0.57873500     -0.73350200      0.21603600
C           2.54983400     -1.73582400     -1.10928500
C           1.26641800      0.50291900      0.80435100
H           1.06508400     -0.33441600     -1.85818300
H           0.44867700     -1.95804300     -1.55946600
H          -0.50122300     -0.52177500      0.11371200
H           0.66248500     -1.57577300      0.92939600
H           3.27925600     -0.97593700     -0.78296700
H           2.62615700     -2.58630900     -0.40921700
H           2.87280300     -2.09782400     -2.09960300
H           2.33395900      0.32418800      1.01684200
H           1.20255600      1.36001500      0.11077400
H           0.79168300      0.80820900      1.75109500
