14
b3lypvdz=-249.548751798209 
O          -0.88662700     -0.22745500      0.23036900
N           3.38351900     -0.21337600     -0.67771000
C           2.85342700     -0.12804000      0.68964600
C           1.38477200      0.30410800      0.69169700
C           0.43082400     -0.75309000      0.14584400
H          -1.49163900     -0.86780500     -0.16976000
H           3.01552400     -1.04922200     -1.13796200
H           4.39451200     -0.36198900     -0.64028400
H           2.95847500     -1.06705600      1.27964600
H           3.44244200      0.63340300      1.22756600
H           1.28067500      1.21798800      0.08408600
H           1.06841700      0.54803200      1.72074100
H           0.69611900     -0.99914000     -0.90341100
H           0.53286000     -1.68835600      0.73713100
