18
b3lypvdz=-272.807193259942 
O          -0.79116700     -0.28517800      0.23551700
C           2.94719800     -0.23681800      0.79438500
C           1.47982700      0.20036100      0.67769000
C           3.17147900     -1.48646000      1.65091500
C           0.78990900     -1.08035000     -1.43372500
C           0.52287700     -0.82034000      0.04865800
H          -1.42054600     -0.92669500     -0.12515100
H           3.37835000     -0.39857900     -0.21008000
H           3.52078500      0.60071900      1.22856900
H           1.41366100      1.13343800      0.09089100
H           1.08180800      0.43466800      1.68048100
H           2.71815000     -2.38444600      1.20025700
H           2.72834100     -1.36690200      2.65483300
H           4.24597000     -1.69520600      1.77982100
H           1.80715600     -1.46978300     -1.60572500
H           0.66249200     -0.15080400     -2.01249700
H           0.08726600     -1.83113900     -1.83347500
H           0.61244400     -1.77838800      0.59823500
