14
b3lypvdz=-158.33375736709 
C           3.13491700     -1.51439600      1.24555200
C           2.76899400     -2.54884700      0.17857500
C           2.89200000     -0.05674700      0.82498200
C           1.41373300      0.32249400      0.70927200
H           2.56231300     -1.72100400      2.16977700
H           4.19802700     -1.64012000      1.51750600
H           1.70631900     -2.48968400     -0.11171700
H           3.36706700     -2.40464200     -0.73767400
H           2.95394300     -3.57410000      0.54049700
H           3.40028200      0.12929900     -0.14094900
H           3.38277800      0.61351300      1.55248000
H           0.87974000     -0.30665900     -0.02115300
H           1.29044000      1.36979300      0.38763000
H           0.89774600      0.20680100      1.67892100
