13
b3lypvdz=-344.396013316904 
O          -0.78791700     -0.21934500     -0.04289500
O          -1.54622300     -2.24694500      0.59299600
C          -1.77994300     -1.10319400      0.25710800
C          -3.13477300     -0.53860900      0.11086200
C          -3.36816000      0.74941200     -0.21563300
C          -4.67007100      1.40520000     -0.38319900
C          -5.88495200      0.83798300     -0.29317500
H           0.04158200     -0.71165200      0.09116700
H          -3.93572500     -1.25568300      0.30532800
H          -2.49529900      1.38814300     -0.37791300
H          -4.61825800      2.47341700     -0.62014900
H          -6.02617800     -0.22424400     -0.07154800
H          -6.78778300      1.43441700     -0.44405000
