16
b3lypvdz=-213.653096915311 
N           3.32643500     -0.18763200     -0.72523600
C           2.86909200     -0.20764200      0.67478500
C           1.40269200      0.25878800      0.74606300
C           3.10521400     -1.55150500      1.38709300
C           0.36725100     -0.72532300      0.18738100
H           2.86317400     -0.94466200     -1.23595200
H           4.32101300     -0.42908700     -0.75413800
H           3.46840700      0.56075900      1.19737400
H           1.33356100      1.21127200      0.19482100
H           1.15206200      0.48042000      1.79959100
H           2.58994300     -2.37455600      0.86244600
H           2.74317900     -1.53999100      2.43037700
H           4.18145000     -1.79543900      1.40722300
H          -0.64135900     -0.28093100      0.22371500
H           0.56911400     -0.98423900     -0.86650600
H           0.33357100     -1.66353300      0.76476300
