12
b3lypvdz=-248.352289536805 
O           0.40860300      2.03705000     -0.69302200
N           3.27528800     -0.26218500     -0.69167500
C           2.83089500     -0.16415000      0.69991900
C           1.38990600      0.35378400      0.74499700
C           1.26011800      1.72102900      0.10489400
H           2.68912200     -0.93692700     -1.18990400
H           4.22237700     -0.64513900     -0.72944300
H           2.89085600     -1.10603700      1.28553600
H           3.48773600      0.55960800      1.21802800
H           0.68921400     -0.33368200      0.24237800
H           1.07394200      0.44509200      1.80197800
H           2.03204500      2.46215600      0.44941400
