17
b3lypvdz=-197.617967307304 
C           2.62964800     -1.64964000     -0.97702800
C           1.16633300      0.66147400      0.74632000
C           2.89618000     -2.81776500     -0.02414300
C           1.15730300     -1.20492200     -1.04215700
C           0.55425200     -0.65788800      0.26295400
H           3.27313000     -0.79591600     -0.69489100
H           2.94763000     -1.94139700     -1.99465000
H           2.23741900      0.56188900      0.99170900
H           1.07311600      1.44828000     -0.02321000
H           0.65636200      1.02480200      1.65357300
H           2.72613300     -2.53903300      1.02948300
H           3.93849700     -3.16870400     -0.10493400
H           2.24005500     -3.67607300     -0.25283700
H           1.04784000     -0.43641000     -1.83062500
H           0.54818100     -2.06523500     -1.37801200
H          -0.52911100     -0.50920100      0.10367500
H           0.63713200     -1.41836100      1.06107200
