15
b3lypvdz=-345.604896200515 
O          -0.80441600     -0.16333100      0.05047400
O          -1.68488000     -2.21650800      0.44381800
C           1.00528600     -1.28573800     -1.16089800
C           0.52826400     -0.71686400      0.16662000
C          -1.83139300     -1.03626900      0.19918000
C          -3.16356600     -0.39951500      0.03221800
C          -3.36221900      0.89743600     -0.22311900
H           2.04191100     -1.65032200     -1.06510200
H           0.97581200     -0.51636200     -1.94966700
H           0.37516100     -2.13379700     -1.46823900
H           1.14915000      0.13025900      0.49271900
H           0.52453700     -1.49076300      0.94861600
H          -3.99562500     -1.10047900      0.13828700
H          -4.37147900      1.30209400     -0.33744900
H          -2.52304300      1.58835900     -0.32775900
