19
b3lypvdz=-252.928948724758 
N           3.29086800     -0.23388300     -0.76586600
C           2.84979900     -0.23317700      0.63794300
C           1.39106300      0.25734600      0.73710100
C           3.08395300     -1.57432100      1.35596300
C           0.32416200     -0.72069900      0.23203500
C           4.73795100     -0.22092600     -0.94687500
H           2.90562900     -1.05768300     -1.23279000
H           3.47092000      0.53276800      1.13895500
H           1.32864700      1.19376200      0.15893800
H           1.17444200      0.51214600      1.79045000
H           2.53047200     -2.38869500      0.85677800
H           2.74984600     -1.54087800      2.40684500
H           4.15124800     -1.84900000      1.35200800
H          -0.67471100     -0.25518600      0.27348100
H           0.50228600     -1.01700100     -0.81611800
H           0.28158600     -1.63953400      0.83899000
H           4.97513900     -0.23541300     -2.02257400
H           5.29542100     -1.05458500     -0.46718100
H           5.14737800      0.71705800     -0.53238300
