14
b3lypvdz=-249.549671526016 
O          -0.96269900     -0.38024600      0.05335900
N           3.34986300     -0.31986800     -0.75921800
C           2.52932700     -1.50349500     -1.04259100
C           1.04631300     -1.13614400     -1.15532100
C           0.41539300     -0.70449000      0.16977400
H          -1.41172900     -1.15988900     -0.30631000
H           3.22355400     -0.03425400      0.21480000
H           4.33906000     -0.57025200     -0.82921800
H           2.64440500     -2.32472100     -0.29888300
H           2.86652100     -1.91845000     -2.00744600
H           0.92629000     -0.32354100     -1.89142500
H           0.49221600     -2.01505600     -1.53857500
H           0.89681600      0.21549900      0.54100700
H           0.58567000     -1.49129400      0.93694800
