19
b3lypvdz=-310.887523398201 
O           0.41473700      2.13210100     -0.57252500
C           2.80192700     -0.13527700      0.62376200
C           1.32168000      0.30526400      0.74846200
C           3.14595400     -1.51470400      1.22753400
C           3.11203400     -2.68403200      0.23880600
C           0.28872600     -0.60988700      0.09577300
C           1.20634300      1.73674500      0.25263000
H           3.10319400     -0.11253300     -0.44039400
H           3.41576600      0.63027900      1.12851600
H           1.11196600      0.36752600      1.83761800
H           2.47286400     -1.72173800      2.07970100
H           4.15982700     -1.46148300      1.66047400
H           3.81110100     -2.51193900     -0.59725200
H           3.41345600     -3.62347400      0.73141000
H           2.11346700     -2.83858800     -0.19861900
H          -0.71683300     -0.17031100      0.18317800
H           0.49425500     -0.74769200     -0.97828600
H           0.27713000     -1.59871500      0.57685900
H           1.94660600      2.44175700      0.72195500
