14
b3lypvdz=-307.510480658265 
O          -0.87367500     -0.51873300      0.45105700
O           0.28460000      1.47836000     -1.17637800
C           2.89300900      0.01641900      0.71721400
C           1.39801300      0.37669500      0.67799700
C           0.49965800     -0.83719300      0.40066100
C           1.15343800      1.48700900     -0.32626700
H          -1.02699700      0.08550500     -0.29455900
H           3.23461000     -0.38464500     -0.25183300
H           3.08106300     -0.75356400      1.48163800
H           3.51577000      0.89024400      0.96538100
H           1.11859100      0.80639700      1.66112800
H           0.79389200     -1.27802000     -0.57490400
H           0.67775900     -1.60823000      1.16785700
H           1.84856900      2.36325600     -0.24179200
