10
b3lypvdz=-135.071733309363 
N           3.19243200     -0.24825900     -0.73268900
C           4.63272400     -0.27987400     -0.95206100
C           2.55741000     -1.52457500     -1.03384600
H           3.01656600     -0.01655600      0.24679300
H           4.83577100     -0.44072600     -2.02585900
H           5.17106800     -1.07874300     -0.39171000
H           5.07774600      0.68890100     -0.67056000
H           2.98899500     -2.39685700     -0.49067900
H           1.48097800     -1.47233500     -0.80032400
H           2.65331000     -1.73157600     -2.11496400
