18
b3lypvdz=-326.918107389663 
O           0.35922000      1.97239100     -0.68240600
N           3.27920000     -0.11915000     -0.70402600
C           2.84810600     -0.17381300      0.69739800
C           1.38831500      0.29918200      0.73515900
C           3.03560500     -1.53205400      1.39242100
C           4.70729100     -0.27525900     -0.94513800
C           1.24269400      1.65903000      0.08029500
H           2.75564300     -0.81289500     -1.24264200
H           3.46126500      0.57535400      1.23558400
H           0.71563400     -0.40859100      0.22148000
H           1.04378200      0.38238400      1.78355100
H           2.42220400     -2.31017800      0.90612500
H           2.73714100     -1.48371400      2.45320200
H           4.08730700     -1.85949000      1.35752400
H           4.90023300     -0.20932000     -2.02746800
H           5.15383100     -1.22359800     -0.57696500
H           5.25387400      0.55143000     -0.46059800
H           2.03235700      2.39889100      0.38260400
