18
b3lypvdz=-326.926728847836 
O           0.41334400      1.96838700     -0.68059800
N           3.31506400     -0.14489500     -0.70724300
C           2.86189700     -0.20032700      0.69130100
C           1.38325300      0.25639800      0.74478400
C           3.10653400     -1.55000500      1.38139300
C           0.36774300     -0.73172800      0.16869100
C           1.28297300      1.62633700      0.08718900
H           2.85509000     -0.88449900     -1.24406400
H           4.31283500     -0.36669600     -0.75453800
H           3.44522300      0.56764000      1.23294700
H           1.14127400      0.43263700      1.81361000
H           2.59472500     -2.37004100      0.85127500
H           2.74906400     -1.54924800      2.42595500
H           4.18429100     -1.78446500      1.39183100
H          -0.63923400     -0.28969300      0.18136400
H           0.59183800     -0.97545600     -0.88282300
H           0.34485700     -1.66754700      0.74665700
H           2.09292900      2.33950100      0.39526800
