8
b3lypvdz=-191.813569582834 
C          -3.20719200     -0.43597900      0.06480200
C          -3.32337200      0.85884800     -0.25891400
O          -1.71147800     -2.23034200      0.53773900
C          -1.88249500     -1.06770200      0.23703300
H          -4.07621400     -1.08290600      0.22219800
H          -4.29508000      1.34197400     -0.38746400
H          -2.43530100      1.48219200     -0.41090600
H          -1.01486700     -0.37498500      0.06431200
