13
b3lypvdz=-174.36606108933 
C           1.04944000     -1.23590700     -1.12295400
C           0.41410700     -0.76849300      0.19208300
N           3.29609700     -0.25583000     -0.79004000
C           2.55404700     -1.50159900     -1.02658700
H           0.88069200     -0.47585000     -1.90656700
H           0.55008100     -2.16186600     -1.46183400
H          -0.67584800     -0.63919400      0.08581000
H           0.82482600      0.20199300      0.51949200
H           0.58659000     -1.50005400      1.00191400
H           3.10952600      0.07459900      0.15991300
H           4.30011500     -0.44985600     -0.80743400
H           2.73222500     -2.29225400     -0.26048600
H           2.90560000     -1.91799000     -1.98701100
