12
b3lypvdz=-306.315560913443 
O          -0.87530300     -0.22337000      0.02494300
O          -1.65011100     -2.27823200      0.57548300
C           0.46072400     -0.73171200      0.15354700
C          -1.85951800     -1.12334700      0.26915800
C          -3.19362000     -0.48889400      0.10275300
C          -4.31645100     -1.20304000      0.22871600
H           1.12284900      0.11949900     -0.04904000
H           0.64112500     -1.54073700     -0.57025700
H           0.63270200     -1.12739900      1.16673700
H          -3.20312700      0.57666500     -0.13850900
H          -5.30026300     -0.74520300      0.10066400
H          -4.26540600     -2.26952900      0.46480600
