6
b3lypvdz=-115.656611006682 
O          -0.84804200     -0.21460800      0.05938300
C           0.46312900     -0.74582400      0.16947900
H          -1.45016500     -0.95991300     -0.07642800
H           1.14222700      0.10915500      0.31342500
H           0.79098400     -1.28826200     -0.74182400
H           0.58526800     -1.42504800      1.03756600
