17
b3lypvdz=-197.617906022177 
C           2.93798300     -0.19138900      0.79819500
C           1.46392600      0.24103200      0.72423900
C           3.17500100     -1.49884300      1.56336900
C           0.82484800     -1.15126500     -1.35985900
C           0.50260200     -0.78110500      0.09309800
H           3.35401300     -0.28333300     -0.22171700
H           3.51472300      0.61844100      1.28065500
H           1.39997100      1.19103600      0.16211300
H           1.10849800      0.46959300      1.74702900
H           2.69433300     -2.35896900      1.06742500
H           2.76585700     -1.44408700      2.58809400
H           4.25090000     -1.72665100      1.64344800
H           1.79788800     -1.66412800     -1.44985100
H           0.86507300     -0.25429100     -2.00302500
H           0.06184600     -1.82783200     -1.77918900
H          -0.51928200     -0.36173200      0.13854800
H           0.47501700     -1.69777700      0.70922700
