15
b3lypvdz=-233.517617789875 
O          -0.93257500     -0.22790500     -0.04886400
C           2.54863000     -1.55403600     -0.99418700
C           2.90342600     -2.59331400      0.07435500
C           1.05045600     -1.23005600     -1.10351300
C           0.42134200     -0.62058500      0.15247900
H          -1.42861200     -1.02755700     -0.27962100
H           3.11352800     -0.62277800     -0.80064300
H           2.89603400     -1.92088800     -1.97656700
H           2.72336300     -2.21340100      1.09404000
H           3.96655100     -2.87896300      0.01514500
H           2.30532100     -3.51282900     -0.05121000
H           0.87924300     -0.52340400     -1.93419700
H           0.49923100     -2.15571600     -1.36607200
H           0.95835000      0.30214000      0.43358400
H           0.51191200     -1.31580600      1.01117300
