12
b3lypvdz=-194.234182613028 
O          -0.89665400     -0.29170600      0.04290800
C           1.05614000     -1.18533500     -1.16862300
C           0.46178500     -0.69672800      0.15301800
C           2.53149000     -1.58037100     -1.05444500
H          -1.40389700     -1.06675300     -0.24111800
H           0.91996400     -0.39038400     -1.92324500
H           0.46753200     -2.05340100     -1.52516200
H           1.00848900      0.19543200      0.50449700
H           0.59457900     -1.47682900      0.93340900
H           3.15317100     -0.72566300     -0.73521100
H           2.67851100     -2.38644900     -0.31488600
H           2.92909000     -1.94181400     -2.01654300
