16
b3lypvdz=-362.862519531946 
O           2.00200300      2.64202600      0.67015800
O           0.27870600      1.99969800     -0.62296000
N           3.29585400     -0.13184600     -0.73840200
C           2.87593500     -0.08061900      0.65522100
C           1.40666200      0.34001900      0.75566100
C           4.72283700     -0.36547800     -0.90572500
C           1.14568600      1.71372100      0.17010100
H           1.76144800      3.47893500      0.23105700
H           2.77275600     -0.86517600     -1.22076900
H           3.01967000     -1.03933400      1.20206500
H           3.49669500      0.66921600      1.17217900
H           0.74643500     -0.36712700      0.23215300
H           1.10548000      0.35605900      1.81745800
H           4.95649800     -0.47524900     -1.97601800
H           5.11058100     -1.26127200     -0.37277100
H           5.28585400      0.50532800     -0.52890800
