12
b3lypvdz=-306.314523189699 
O          -0.80988800     -0.18861400     -0.00357700
O          -1.68702500     -2.19658300      0.54500800
C           0.49503500     -0.75910600      0.18302500
C          -1.84121900     -1.04001500      0.21262800
C          -3.17099600     -0.40131800      0.03627300
C          -3.36303000      0.88726800     -0.26352700
H           1.20332600      0.05743800     -0.00695400
H           0.66423200     -1.58780900     -0.52114800
H           0.61155100     -1.14549900      1.20797500
H          -4.00793300     -1.08846400      0.18618800
H          -4.37087000      1.29646600     -0.37635200
H          -2.52058300      1.56793600     -0.40583800
