20
b3lypvdz=-291.007548986069 
N           3.18070100     -0.23905800     -0.63827800
C           2.98220500     -0.13752900      0.81704800
C           2.52373700     -1.51292600     -1.00950700
C           3.06418000     -1.57792100      1.39667800
C           2.78942800     -2.49507400      0.17202100
C           1.02900400     -1.29888100     -1.27892400
C           4.59535100     -0.21044200     -1.00527600
H           1.98421900      0.29175300      1.01124700
H           3.71566400      0.55486700      1.25748500
H           2.98353200     -1.88135000     -1.94106100
H           2.34039700     -1.72763900      2.21217400
H           4.06161400     -1.78095100      1.81830500
H           3.66984300     -3.12179700     -0.04026900
H           1.94309000     -3.18153100      0.33134900
H           0.48437400     -0.98961100     -0.37070200
H           0.88547500     -0.51617700     -2.04029100
H           0.56171800     -2.22962300     -1.64263900
H           4.69632000     -0.32927000     -2.09646500
H           5.22413100     -0.99107400     -0.52066200
H           5.02281500      0.76923300     -0.73633300
