16
b3lypvdz=-362.848456325351 
O          -0.89289700     -0.35269700      0.68229600
O          -1.70961400     -2.05627200     -0.58422200
N           3.23224400     -0.36898800     -0.74497800
C           2.88173800     -0.05613700      0.64703900
C           1.40539800      0.33576100      0.77629800
C           0.46367400     -0.81509500      0.46377800
C          -1.86407900     -1.06787900      0.08729700
H           2.96180500     -1.32729000     -0.97540500
H           4.24655300     -0.34210900     -0.85982200
H           3.10840500     -0.87518600      1.36596900
H           3.49332800      0.80564600      0.96093200
H           1.19461800      1.16714400      0.08316800
H           1.20751300      0.69515000      1.80129100
H           0.55723600     -1.16255600     -0.57598700
H           0.64513300     -1.68025900      1.12581100
H          -2.84235700     -0.59523400      0.31673400
