13
b3lypvdz=-232.319896883947 
O           0.46704500      2.04662400     -0.71042600
C           2.87900700     -0.14963400      0.70333000
C           1.41617800      0.32391400      0.70140300
C           3.06002300     -1.51534100      1.36771300
C           1.25673700      1.72086000      0.14529200
H           3.25070400     -0.18839500     -0.33602000
H           3.50307700      0.59967100      1.22380300
H           0.76320400     -0.35544100      0.13076000
H           1.04926300      0.34853500      1.74703300
H           2.45308000     -2.28918300      0.87016300
H           2.75273600     -1.48909200      2.42762200
H           4.11250400     -1.84017400      1.32955700
H           1.95534100      2.47685800      0.60106900
