17
b3lypvdz=-251.738300425997 
N           3.25700800     -0.39051100     -0.62370400
C           2.87051100     -0.04759000      0.74631100
C           2.51732100     -1.54998900     -1.12648500
C           1.39052100      0.34788200      0.77496800
C           1.02345000     -1.21552000     -1.18163600
C           0.51851000     -0.77950200      0.20172700
H           4.25872800     -0.57965900     -0.65941200
H           3.02854400     -0.89434300      1.45878700
H           3.50234500      0.78631500      1.09405100
H           2.65877100     -2.45284800     -0.48436000
H           2.89706800     -1.80520600     -2.12942800
H           1.25982300      1.25999500      0.16653700
H           1.08166700      0.59272400      1.80570600
H           0.87305100     -0.39631900     -1.90781700
H           0.45283800     -2.08609100     -1.54786700
H          -0.53567900     -0.45716700      0.14579500
H           0.54852200     -1.64907100      0.88622600
