15
b3lypvdz=-287.641613995287 
O           0.41658100      2.02605800     -0.66560800
N           3.26675400     -0.19285200     -0.72918300
C           2.84937400     -0.19883600      0.68017300
C           1.40615000      0.32214100      0.74045400
C           3.00885300     -1.55037500      1.39044800
C           1.28258500      1.69407400      0.10965400
H           2.68779800     -0.85657800     -1.25263500
H           4.22166500     -0.55209400     -0.80914900
H           3.49248900      0.53740800      1.20033700
H           0.70569400     -0.36118400      0.23072800
H           1.08746800      0.40448500      1.79687300
H           2.38066500     -2.32312000      0.91502900
H           2.72497000     -1.49042100      2.45550700
H           4.05679100     -1.89246600      1.34037300
H           2.07416300      2.42096000      0.43689800
