17
b3lypvdz=-288.828179092258 
O          -0.98078600     -0.55930800      0.18878800
N           3.29429500     -0.15610200     -0.92315900
C           2.50648500     -1.36217500     -1.16089500
C           1.00223800     -1.07888800     -1.18245300
C           0.42828300     -0.72692800      0.19334700
C           4.72637700     -0.41810500     -0.87355100
H          -1.36968500     -1.38268800     -0.14188500
H           3.00861200      0.26442200     -0.03810700
H           2.71457600     -2.16666000     -0.41478300
H           2.81743900     -1.77546400     -2.13711300
H           0.78802000     -0.26374600     -1.89350400
H           0.48323700     -1.98235000     -1.55457300
H           0.82959600      0.23804300      0.54575500
H           0.74384000     -1.49547200      0.93139800
H           5.07381500     -0.77957800     -1.85740000
H           5.02952200     -1.18486100     -0.12529900
H           5.27083700      0.51256000     -0.64816700
