16
b3lypvdz=-362.827782809192 
O          -0.85288300     -0.65715800      0.65885100
O          -0.01078700      1.43877900     -0.99696500
N           3.32867300     -0.19262300     -0.75240800
C           2.89705700      0.08157500      0.62227000
C           1.38331300      0.33919300      0.65145800
C           0.51889300     -0.91825700      0.45649000
C           1.02928300      1.41057900     -0.36872700
H          -1.08412300      0.00631000     -0.01493400
H           3.05587600     -1.13686700     -1.03129300
H           4.34731100     -0.16872900     -0.81974000
H           3.14727100     -0.71319600      1.35678400
H           3.41738400      0.99249000      0.96382100
H           1.11335400      0.76607700      1.63894600
H           0.70844500     -1.34289900     -0.55267300
H           0.81367000     -1.68473200      1.19227100
H           1.79096100      2.21795800     -0.50505000
