18
b3lypvdz=-326.917739455385 
O           0.29637400      1.97662800     -0.63483500
N           3.30349200     -0.13276300     -0.76087800
C           2.87847600     -0.07485500      0.63174600
C           1.39200700      0.30545100      0.74699300
C           0.42924400     -0.73949000      0.18333600
C           4.73700300     -0.33879400     -0.91876300
C           1.18233000      1.68061300      0.13414800
H           2.80427600     -0.88442700     -1.23794500
H           3.06129100     -1.01453200      1.20049600
H           3.48630400      0.70142300      1.13151100
H           1.19276900      0.43589000      1.83065400
H          -0.61515600     -0.45791100      0.38479100
H           0.52973300     -0.82459000     -0.91017200
H           0.61588500     -1.72672600      0.63585900
H           4.98159400     -0.43880000     -1.98741800
H           5.13631100     -1.22946600     -0.38669600
H           5.28218600      0.53949800     -0.53247800
H           1.93128100      2.44525200      0.47135000
