16
b3lypvdz=-271.605725691426 
O           0.24540400      2.00697200     -0.72007800
C           2.55021800     -1.80152000     -1.10608700
C           1.34728800      0.48564300      0.80218300
C           1.15615100     -1.17132400     -1.17543700
C           0.61460900     -0.70856500      0.18522300
C           1.06648500      1.81836100      0.14946300
H           3.32212500     -1.08189000     -0.78617100
H           2.57334800     -2.64358200     -0.39300600
H           2.86426300     -2.19596000     -2.08588300
H           2.44539100      0.34687500      0.81824100
H           1.07905200      0.61320100      1.86949100
H           1.14539600     -0.32131700     -1.87831900
H           0.45012400     -1.91284000     -1.58772900
H          -0.44740100     -0.43243700      0.07280900
H           0.65884900     -1.55256100      0.89587400
H           1.66549600      2.67114700      0.56852500
