13
b3lypvdz=-381.516893809674 
O          -0.87345100     -0.39220200      0.76842800
O           0.63632400      1.66352900     -1.06325800
O          -1.66926000     -1.95167500     -0.68157700
C           1.36792700      0.40631900      0.86518400
C           0.48847800     -0.75520600      0.44444200
C           1.27482000      1.61828200     -0.03923000
C          -1.83960000     -1.06871500      0.11836100
H           2.42990400      0.09408900      0.88976000
H           1.12957600      0.72842400      1.89586400
H           0.56422200     -0.95711800     -0.63325100
H           0.75025100     -1.67407300      0.99292000
H           1.87131300      2.50179800      0.31236100
H          -2.82250400     -0.67225200      0.44709600
