8
b3lypvdz=-79.764168103684 
C           2.86140700     -0.12562900      0.72219400
C           1.40389300      0.34182900      0.78830700
H           3.19460700     -0.24972200     -0.32223100
H           2.99369800     -1.09393100      1.23385000
H           3.53762100      0.59940600      1.20496500
H           0.72768000     -0.38320700      0.30553400
H           1.27160200      1.31013200      0.27665000
H           1.07069300      0.46592200      1.83273100
