16
b3lypvdz=-362.856347831157 
O           2.04160900      2.60157900      0.74544000
O           0.37942200      2.04191400     -0.67818800
N           3.32582800     -0.18061100     -0.63974900
C           2.80905500     -0.16778900      0.72934900
C           1.35989000      0.32799000      0.73582300
C           1.19027600      1.72272300      0.16132600
C           1.93499800      3.95469500      0.27993200
H           2.82240500     -0.88207100     -1.18865200
H           4.30076700     -0.48767200     -0.63751800
H           2.84377300     -1.14868100      1.25106400
H           3.42167400      0.52993200      1.32242100
H           0.70752300     -0.33690800      0.14962800
H           0.98082200      0.33563600      1.77279600
H           0.91728900      4.34291100      0.44284100
H           2.16617100      4.01591300     -0.79469800
H           2.66209800      4.53133700      0.86438400
