13
b3lypvdz=-174.370542629017 
C           2.81946600     -2.54656700      0.12477900
C           1.05266900     -1.25611600     -1.15165200
N           3.22328600     -0.21509000     -0.75903800
C           2.55154100     -1.50606000     -0.97588500
H           2.43881500     -2.18825800      1.09902000
H           3.90082400     -2.73946800      0.23432000
H           2.32834500     -3.51181900     -0.09412000
H           0.60866600     -0.85796200     -0.22058600
H           0.86980000     -0.52136100     -1.95081800
H           0.52018700     -2.18760900     -1.40590100
H           2.89963800      0.17968100      0.12943900
H           4.22833100     -0.36521300     -0.63925400
H           2.94523200     -1.90775600     -1.92880400
