13
b3lypvdz=-344.39334121724 
O          -0.82953400     -0.25539800      0.02135200
O          -1.80225200     -2.19027900      0.62152800
C          -1.91028000     -1.03591500      0.26229900
C          -3.21474900     -0.32906000      0.04389000
C          -4.40672800     -1.18803900      0.18885900
C          -3.21886800      0.98655500     -0.24572900
C          -5.68618600     -0.80981200      0.06114100
H          -0.05681400     -0.81543300      0.21768300
H          -4.17515800     -2.22876500      0.42782000
H          -4.15100800      1.53499700     -0.39979400
H          -2.28726500      1.54425100     -0.33457400
H          -5.98292200      0.21680500     -0.17312600
H          -6.49243600     -1.53600700      0.18505000
