11
b3lypvdz=-268.268177943871 
O           1.99892100      2.61931700      0.78372000
O           0.56100100      1.96866300     -0.82245400
C           1.35442800      0.34383000      0.80872500
C           0.50568800     -0.73638700      0.15235200
C           1.23123800      1.69887500      0.14774600
H           1.87189800      3.45576000      0.29881600
H           2.42684200      0.07761800      0.79489800
H           1.10355600      0.47567600      1.87596500
H          -0.56466200     -0.47945100      0.19017600
H           0.77877800     -0.86040900     -0.90690200
H           0.65121300     -1.69979300      0.66485900
