17
b3lypvdz=-288.834938728133 
O          -0.84961200     -0.10221600      0.00137400
N           3.35063600     -0.13622600     -0.70413800
C           2.86138600     -0.19966800      0.68562100
C           1.38735800      0.24590700      0.72768600
C           3.11155100     -1.55705600      1.36442800
C           0.38371200     -0.77945300      0.19909200
H          -1.50194300     -0.75131800     -0.29702300
H           2.92416700     -0.89651200     -1.24200400
H           4.35174300     -0.35213400     -0.71246800
H           3.43465200      0.56418400      1.24130400
H           1.29828400      1.14803500      0.10311000
H           1.09751300      0.51833000      1.75699200
H           2.60005100     -2.37436900      0.82689700
H           2.75566200     -1.57028900      2.40956100
H           4.18886700     -1.79503400      1.36822800
H           0.75178300     -1.22174600     -0.75108000
H           0.27338800     -1.61753400      0.91742100
