17
b3lypvdz=-346.816583263795 
O          -0.89401100     -0.18780700      0.00760300
O          -1.69122400     -2.25275700      0.54944400
C           2.53107100     -1.56628400     -1.01733200
C           2.90650500     -2.57085900      0.07629000
C           1.03053100     -1.24441100     -1.09707600
C           0.47499000     -0.63568200      0.18732900
C          -1.85515400     -1.10327200      0.22327000
H           3.10166700     -0.63044300     -0.86901600
H           2.84903800     -1.96393700     -1.99713400
H           2.75530400     -2.15304400      1.08607100
H           3.96635200     -2.86288700      0.00040500
H           2.29842800     -3.48811000     -0.00020700
H           0.84560800     -0.53682300     -1.92337200
H           0.46402700     -2.16371400     -1.32657600
H           1.02597500      0.27340100      0.47128000
H           0.50095600     -1.35517500      1.01746800
H          -2.84076200     -0.62179600      0.05295400
