10
b3lypvdz=-135.082070649582 
C           2.83378100     -2.56671700      0.13563700
N           3.19294400     -0.21131900     -0.76389400
C           2.59147800     -1.53149500     -0.96940600
H           2.44850900     -2.20451400      1.10583500
H           3.91191600     -2.77300300      0.25798300
H           2.33088000     -3.52407200     -0.08785000
H           2.87806200      0.16366200      0.13542700
H           4.20783200     -0.31019500     -0.67015500
H           1.50418800     -1.38598200     -1.10320100
H           2.96590800     -1.92566400     -1.93117500
