15
b3lypvdz=-287.63899729755 
O           0.38775700      1.96497500     -0.68787300
N           3.32681900     -0.21269900     -0.71425000
C           2.88102200     -0.13851700      0.67882800
C           1.40447600      0.29366400      0.75269000
C           0.42297700     -0.73499700      0.19066900
C           1.24800900      1.66153800      0.10643700
H           2.83438200     -0.96829900     -1.19511100
H           4.31459100     -0.47309700     -0.74786500
H           3.00321200     -1.07508800      1.26473900
H           3.49619800      0.62464500      1.18834200
H           1.18339900      0.45568900      1.82820600
H          -0.61673800     -0.41066200      0.34819400
H           0.55186000     -0.86091000     -0.89622300
H           0.56042300     -1.71309300      0.67943600
H           2.00891100      2.41405100      0.44628200
