13
b3lypvdz=-232.321744635744 
O           0.56891100      1.97582200     -0.82267200
C           1.35119600      0.35504500      0.79469500
C           1.03983300     -1.24533500     -1.18778400
C           0.50339600     -0.74803500      0.15689900
C           1.28496300      1.70249200      0.11401200
H           2.42018900      0.06694300      0.85253900
H           1.05799100      0.53367600      1.84836100
H           2.06238500     -1.64983800     -1.08667500
H           1.05963000     -0.43093300     -1.92834200
H           0.40616300     -2.05121800     -1.59107900
H          -0.52326500     -0.36606500      0.02281700
H           0.44231100     -1.59205500      0.86516000
H           1.95579700      2.48090200      0.56876900
