15
b3lypvdz=-287.62956778823 
O           0.38750700      2.18980200     -0.66049300
N           3.19409800     -0.40116100     -0.57921200
C           2.72063300     -0.13339700      0.77739500
C           2.73571000     -1.67343700     -1.12797300
C           1.30676400      0.46285500      0.76792600
C           1.26500500      1.81084800      0.07782900
H           4.21314500     -0.38678200     -0.58462800
H           2.73655300     -1.03732000      1.42677700
H           3.40639000      0.59796500      1.24065000
H           2.92701400     -2.54419600     -0.46013700
H           1.65084800     -1.64204100     -1.32497900
H           3.23505700     -1.86131300     -2.09097800
H           0.56991700     -0.19936400      0.28770800
H           0.97387600      0.62166000      1.81293800
H           2.13528300      2.47888100      0.33027700
