15
b3lypvdz=-233.523827931976 
O          -0.81586700     -0.33014000      0.09511800
C           2.53252200     -1.72108700     -1.10965300
C           1.27527300      0.49878000      0.80040900
C           1.10988200     -1.15788800     -1.15161500
C           0.55772600     -0.70985200      0.20961400
H          -1.29178200     -1.07562600     -0.29977200
H           3.26896100     -0.95602900     -0.81471500
H           2.61359800     -2.55448100     -0.39028600
H           2.83719800     -2.11033000     -2.09468400
H           2.32280700      0.26459200      1.04642900
H           1.25632200      1.34390800      0.09194400
H           0.76743000      0.81516900      1.72413000
H           1.04397300     -0.30327600     -1.84919300
H           0.42990400     -1.93433600     -1.55305700
H           0.66155400     -1.55920400      0.92083200
