8
b3lypvdz=-228.981482650067 
O           1.91732300      2.64883000      0.84649400
O           0.68561600      1.95427500     -0.90638100
C           1.26584000      1.70159600      0.12336900
C           1.38307600      0.34519000      0.77143000
H           1.79390600      3.48348400      0.35707800
H           2.44515300      0.07135100      0.87667100
H           0.85796400     -0.39976200      0.16300900
H           0.94952200      0.37713500      1.78392900
