17
b3lypvdz=-346.82571843897 
O           1.94425200      2.62441400      0.83866700
O           0.56035400      1.95683000     -0.81923800
C           1.32683100      0.34614400      0.83931500
C           1.05441700     -1.19717400     -1.19964100
C           0.51214700     -0.76064700      0.16392100
C           1.21399600      1.70006600      0.16795400
C           1.89965700      3.95751500      0.30694700
H           2.39986000      0.08447400      0.88048800
H           1.01854000      0.48546800      1.89011700
H           2.08995700     -1.57263200     -1.11614900
H           1.04377900     -0.35728400     -1.91109000
H           0.44300700     -2.00917100     -1.62534300
H          -0.52978600     -0.41438000      0.05155500
H           0.49032600     -1.62842400      0.84613500
H           0.86576800      4.33471900      0.28109000
H           2.30954500      3.98559500     -0.71479900
H           2.51395000      4.56788700      0.98017000
