17
b3lypvdz=-346.821631211399 
O          -0.78350800     -0.24600700      0.23417500
O          -1.68183400     -2.33984200      0.27670100
C           2.91647800     -0.13512800      0.96268600
C           1.48638100      0.32846400      0.66763900
C           0.84459400     -1.18079400     -1.31916900
C           0.57939100     -0.77979700      0.12836500
C          -1.78613500     -1.13721700      0.28736800
H           3.42940200     -0.50951400      0.06158000
H           2.92652800     -0.94615800      1.71101000
H           3.51905500      0.69414800      1.36607700
H           1.49249700      1.16676800     -0.05216100
H           1.02571900      0.71832600      1.59058100
H           1.87792600     -1.54285000     -1.44112600
H           0.69219200     -0.32019500     -1.99082100
H           0.16904800     -1.99313700     -1.62210900
H           0.63005000     -1.67037800      0.77528800
H          -2.74608500     -0.58278900      0.35121500
