16
b3lypvdz=-362.848440864888 
O          -0.91005000     -0.24098800      0.09123500
O          -1.67246400     -2.35703900      0.44389500
N           3.33576100     -0.31391700     -0.80051600
C           2.51953200     -1.51412100     -1.03093700
C           1.02842300     -1.16778700     -1.11040100
C           0.46707700     -0.67686300      0.22027600
C          -1.85605600     -1.18740200      0.21901600
H           3.27927500     -0.03503500      0.18193200
H           4.32154400     -0.54122700     -0.94753000
H           2.67039900     -2.31834100     -0.27690900
H           2.82541400     -1.94240200     -1.99993900
H           0.88173800     -0.38447400     -1.87261200
H           0.46371900     -2.06144200     -1.42474500
H           0.99490100      0.22074900      0.57139300
H           0.52235500     -1.46633200      0.98635800
H          -2.84986600     -0.70957900      0.08908300
