18
b3lypvdz=-326.90963378968 
O           0.05982200      1.90574500     -0.51802600
N           3.19211500     -0.35881300     -0.68553700
C           2.88696900      0.00635100      0.69801200
C           2.60359600     -1.63710200     -1.06806400
C           1.44057700      0.48365300      0.86325300
C           4.62630100     -0.35746400     -0.93985000
C           1.12935800      1.69135500      0.00197600
H           3.10027400     -0.82474100      1.41001100
H           3.56219800      0.83224800      0.98244100
H           3.01364000     -2.49185600     -0.48049400
H           1.51130000     -1.62147200     -0.93275500
H           2.80329800     -1.83230000     -2.13390900
H           0.69610900     -0.29953200      0.65010700
H           1.28107100      0.79321700      1.91573400
H           4.81650300     -0.59368200     -1.99909300
H           5.18424600     -1.09976000     -0.32288300
H           5.04633000      0.63985000     -0.73175200
H           1.97789400      2.42300400     -0.10017100
