16
b3lypvdz=-213.64659676119 
N           3.23831800     -0.16276600     -0.73146900
C           2.84382200     -0.17149400      0.68408100
C           1.39170000      0.29931200      0.79578100
C           3.04902500     -1.52446600      1.38858700
C           4.66845300     -0.28597100     -0.98224900
H           2.74429200     -0.92069400     -1.20976200
H           3.48983400      0.57740300      1.18165600
H           0.71029700     -0.41733300      0.30351800
H           1.26603600      1.27276900      0.29791000
H           1.07742700      0.38853800      1.84851500
H           2.41090800     -2.29859100      0.92545400
H           2.78313700     -1.47028400      2.45797700
H           4.09522100     -1.86554900      1.32239800
H           4.85163000     -0.27130000     -2.06867300
H           5.15901200     -1.19410800     -0.56883900
H           5.18948800      0.58503500     -0.54818400
