14
b3lypvdz=-307.537625509195 
O          -0.81324800     -0.22527900      0.12329600
O          -1.72468400     -2.30288200      0.34550300
C           1.39328000      0.36958500      0.78664300
C           0.99108700     -1.24403900     -1.15423600
C           0.54795500     -0.76041900      0.22112400
C          -1.82261700     -1.10663100      0.21310200
H           2.42133800      0.01862700      0.96878100
H           1.43276700      1.22132500      0.08882400
H           0.97576500      0.72392900      1.74103500
H           2.02351800     -1.62738900     -1.10936300
H           0.95371900     -0.42182400     -1.88685800
H           0.34325900     -2.06161900     -1.50239200
H           0.51423600     -1.61275300      0.91723500
H          -2.77967400     -0.54863300      0.14700400
