12
b3lypvdz=-269.162008840095 
O          -1.64551200     -2.20768600      0.54239100
C          -1.92129100     -1.06523800      0.24862600
C          -3.31365200     -0.53259600      0.07156900
C          -4.33753100     -1.38790500      0.26271500
C          -3.42208200      0.89024300     -0.30038400
C          -4.54199500      1.61556700     -0.43014100
H          -1.11033700     -0.30691700      0.08379700
H          -5.38197900     -1.08640100      0.15056000
H          -4.12113000     -2.42134700      0.54197100
H          -2.46321000      1.38894800     -0.48886300
H          -5.53723200      1.19608100     -0.25617700
H          -4.49555000      2.66685100     -0.72276300
