13
b3lypvdz=-174.358687684284 
N           3.14923100     -0.37013300     -0.67154600
C           2.82109000     -0.07898500      0.72579000
C           2.60207200     -1.63056700     -1.16274800
C           1.38182900      0.41432600      0.89311500
H           4.16541100     -0.40359100     -0.76045700
H           2.98996300     -0.95680000      1.39591900
H           3.51158700      0.71176300      1.06609700
H           2.84714800     -2.51598300     -0.53047400
H           1.50279300     -1.56656200     -1.22876700
H           2.97724200     -1.82279500     -2.18107700
H           0.64379600     -0.37040100      0.65762800
H           1.19342400      1.26682300      0.22069600
H           1.19811400      0.73810400      1.93162600
