17
b3lypvdz=-288.827309306865 
O          -0.91792800     -0.33574700      0.34253800
N           3.34452700     -0.02733900     -0.78355000
C           2.83364200     -0.01991000      0.58333300
C           1.34701600      0.33567300      0.64106500
C           0.42190600     -0.78792900      0.18628300
C           4.75790600     -0.36224200     -0.86638000
H          -1.50764300     -1.02874600      0.01398700
H           2.81222900     -0.69341300     -1.34439200
H           3.01058400     -0.98584700      1.11726300
H           3.40498400      0.73954600      1.14506100
H           1.16679300      1.22799000      0.01912200
H           1.06739600      0.59590300      1.67623500
H           0.62310400     -1.05576700     -0.87267500
H           0.61716200     -1.69499900      0.79671200
H           5.07948700     -0.36814200     -1.92014900
H           5.02378000     -1.34631700     -0.41567800
H           5.35545300      0.40338700     -0.34347600
