11
b3lypvdz=-268.224599719967 
O          -0.78874000     -0.63556200      0.48526300
O           0.10988600      1.59130300     -1.04964800
C           1.38606000      0.47363200      0.66281300
C           0.60818500     -0.81440000      0.37671100
C           1.05453200      1.59886900     -0.28606200
H          -1.01714700      0.01962500     -0.19568400
H           2.48011900      0.30699200      0.64361500
H           1.15408400      0.84686600      1.68113300
H           0.90003300     -1.19435000     -0.62487000
H           0.89066800     -1.58625700      1.11035900
H           1.73692000      2.48748400     -0.24353000
