9
b3lypvdz=-154.947875204748 
O          -0.83264900     -0.20702100      0.06347600
C           0.48901500     -0.73625200      0.17188100
C           1.37058900      0.33978800      0.78055600
H          -1.39235900     -0.89444500     -0.32273800
H           0.88007000     -1.02677500     -0.82603600
H           0.50237600     -1.64218800      0.81374300
H           2.40752900     -0.02098100      0.88634200
H           1.37374000      1.24330500      0.14896800
H           0.99558800      0.62896800      1.77650800
