14
b3lypvdz=-158.33342785022 
C           3.12759000     -1.53399700      1.37331800
C           0.42569100     -0.70851300      0.13242300
C           2.87275300     -0.15667900      0.74756100
C           1.40213200      0.29065400      0.76587800
H           2.64429600     -2.33862800      0.79593600
H           2.74136900     -1.58393900      2.40718900
H           4.20730900     -1.75665800      1.40611800
H          -0.58912000     -0.28039800      0.07474800
H           0.73524100     -0.97962300     -0.89274100
H           0.35721400     -1.63924000      0.71867500
H           3.23497300     -0.16435000     -0.29794300
H           3.48014400      0.60021900      1.27530400
H           1.32504500      1.25819700      0.23873300
H           1.09216200      0.48415300      1.81060000
