17
b3lypvdz=-346.836494404251 
O           2.15958500      2.56098700      0.56723700
O           0.42612000      1.93777600     -0.71545100
C           2.91160300     -0.10614100      0.96112900
C           1.43551800      0.29285800      0.78409400
C           0.92018600     -1.15129700     -1.32521500
C           0.55933000     -0.78903100      0.12063300
C           1.26735600      1.64638000      0.10657500
H           1.94172900      3.39196700      0.10534100
H           3.41617000     -0.26333700     -0.00540500
H           2.97660800     -1.04558200      1.53345800
H           3.46462300      0.66935100      1.50982300
H           1.02928000      0.46607600      1.80087100
H           1.94908900     -1.53933500     -1.41638800
H           0.81628100     -0.27696600     -1.98614900
H           0.24520900     -1.93627900     -1.70359300
H          -0.48762300     -0.44489600      0.15006300
H           0.61423800     -1.69322900      0.75277800
