13
b3lypvdz=-174.360281962911 
C           4.66185500     -0.36293000     -0.94319300
N           3.25148000     -0.06850700     -0.74057900
C           2.87261300      0.00918100      0.66562600
C           1.37710800      0.26493900      0.81640500
H           4.86993300     -0.46975900     -2.01984200
H           5.02199100     -1.28165100     -0.42656600
H           5.27478600      0.47557400     -0.56896000
H           2.68962900     -0.79305300     -1.19278900
H           3.15845600     -0.90174000      1.24383500
H           3.44171300      0.84043500      1.12196300
H           0.78713300     -0.56829900      0.39539700
H           1.08295700      1.18257100      0.28262000
H           1.09664700      0.36523900      1.87718300
