7
b3lypvdz=-95.792472871134 
N           3.21123400     -0.26128500     -0.71080200
C           2.88274300     -0.15183900      0.71363500
H           2.72530800     -1.06793400     -1.10952000
H           4.20612200     -0.47707600     -0.81221500
H           1.80558300      0.06097400      0.82365800
H           3.11279100     -1.04161200      1.34040800
H           3.42531800      0.70417200      1.14743600
