14
b3lypvdz=-158.333757794302 
C           2.99781600     -1.58581800      1.39808500
C           2.92606000     -2.41849000      0.11474000
C           1.05714000     -1.17362700     -1.16040100
C           2.52035800     -1.62616000     -1.13899000
H           2.02312700     -1.14230000      1.66281500
H           3.32256700     -2.20099800      2.25337600
H           3.71542000     -0.75316000      1.29531200
H           3.91057900     -2.88660900     -0.06464600
H           2.21953000     -3.25758400      0.26050200
H           0.79683500     -0.56307300     -0.27953300
H           0.83607000     -0.56334300     -2.05186000
H           0.37465000     -2.04136900     -1.17334300
H           3.18244600     -0.74489500     -1.23541100
H           2.71830200     -2.24797400     -2.03044700
