11
b3lypvdz=-268.247583002564 
O          -0.87585600     -0.22008500      0.43159900
O          -1.67547500     -2.26948700     -0.11770800
C           1.41188600      0.37834600      0.73699700
C           0.47201300     -0.75447000      0.38534100
C          -1.84432600     -1.10386000      0.13814900
H           2.45580100      0.02826900      0.69260500
H           1.29393400      1.21755800      0.03409800
H           1.21350900      0.75392500      1.75347400
H           0.66091700     -1.16407400     -0.61973700
H           0.55132900     -1.59170500      1.09774500
H          -2.82663300     -0.59021700      0.18593700
