17
b3lypvdz=-346.836098524 
O           1.79894900      2.63171500      1.02663100
O           0.74267500      2.13792500     -0.89878700
C           2.95143900     -0.06955300      0.71675700
C           1.47406500      0.32634700      0.54377700
C           3.14144400     -1.50105200      1.24026600
C           2.72093500     -2.60551400      0.26639600
C           1.28513400      1.76296600      0.11598800
H           1.64284300      3.52119500      0.65835900
H           3.48010300      0.04852300     -0.24718900
H           3.42195000      0.63890400      1.41765600
H           0.96592400     -0.29466600     -0.20649000
H           0.94975400      0.19573400      1.50781900
H           2.58607500     -1.61086100      2.18992100
H           4.20688300     -1.63864600      1.49656500
H           1.65209800     -2.54525400      0.00015100
H           3.29890400     -2.55450600     -0.67183400
H           2.89152400     -3.60125600      0.70911400
