9
b3lypvdz=-267.042690124633 
O          -0.88611400     -0.23317500      0.02402400
O          -1.66119700     -2.27628700      0.58266500
C          -1.87858300     -1.12568800      0.26872200
C          -3.21232500     -0.49513800      0.09161800
C          -4.33575800     -1.20546900      0.22888900
H          -0.05294000     -0.72124600      0.15830300
H          -3.22208200      0.56659000     -0.16643400
H          -5.31814900     -0.74657300      0.09363800
H          -4.28795300     -2.26821400      0.48167600
