17
b3lypvdz=-346.825589899604 
O           1.94068800      2.63058000      0.84702200
O           0.66710600      1.93214400     -0.88421200
C           2.89484800     -0.13451900      0.74749500
C           1.42342000      0.31964400      0.78625800
C           0.47796000     -0.69738500      0.14612200
C           1.27776000      1.68671800      0.13183200
C           1.84576200      3.97069200      0.34236500
H           3.23937600     -0.26460300     -0.29248900
H           3.00903700     -1.10006000      1.26589200
H           3.55019500      0.59817600      1.24025600
H           1.14545400      0.46447400      1.84593200
H          -0.57023600     -0.36665100      0.21441100
H           0.71201700     -0.83562000     -0.92168700
H           0.56841000     -1.67139700      0.65269700
H           0.79662100      4.30446900      0.32154500
H           2.25873500      4.03836800     -0.67594100
H           2.42994700      4.59257000      1.03180300
