8
b3lypvdz=-191.811042260671 
C          -3.21780100     -0.49472100      0.07984700
C          -4.33949700     -1.21200600      0.23010500
O          -1.66756600     -2.26116100      0.54542700
C          -1.86958800     -1.10002400      0.25279500
H          -3.25331300      0.56708900     -0.18490800
H          -5.32822000     -0.76424900      0.10052100
H          -4.28194600     -2.27251600      0.49141700
H          -1.01556900     -0.39471100      0.08499500
