16
b3lypvdz=-362.86990340491 
O           2.08619500      2.57387000      0.66108400
O           0.38333000      1.97479900     -0.67701100
N           3.32846700     -0.22041700     -0.68928900
C           2.87362900     -0.15280000      0.70109400
C           1.39797800      0.29251100      0.77569500
C           0.42819300     -0.72050400      0.16553000
C           1.21334700      1.66900900      0.14814800
H           1.89426600      3.41099400      0.20005100
H           2.91475800     -1.03247100     -1.15202300
H           4.33697800     -0.38331300     -0.71150500
H           2.97314200     -1.10213900      1.27137300
H           3.48646700      0.59753300      1.22279300
H           1.16224600      0.41996600      1.84911800
H          -0.61678100     -0.41480100      0.32440100
H           0.57510400     -0.80400300     -0.92273200
H           0.57368100     -1.71263500      0.62287200
