17
b3lypvdz=-346.794504418336 
O          -0.94882100     -0.64108500      0.41442500
O           0.10939800      1.51943500     -1.01726300
C           2.84811200     -0.15705100      0.56809000
C           1.35017700      0.20567600      0.60194500
C           3.26545100     -1.17585300      1.63099600
C           0.41490600     -0.96701400      0.26160700
C           1.07442100      1.40108300     -0.28945200
H          -1.11417600      0.07612600     -0.22079300
H           3.10491400     -0.54259100     -0.43655100
H           3.44038100      0.76599800      0.70193900
H           1.10170100      0.55983800      1.62596400
H           2.76267800     -2.14574000      1.49205600
H           3.01905100     -0.81249300      2.64391300
H           4.35086200     -1.36063800      1.59287400
H           0.64679700     -1.31656400     -0.76786300
H           0.61176000     -1.80989900      0.94079100
H           1.83818800      2.22217200     -0.23567800
