15
b3lypvdz=-382.736191724894 
O          -0.85984800     -0.35293500      0.40907600
O           1.72137200      2.67364900      0.86150400
O           1.01196900      1.85762300     -1.10942900
C           2.86583800     -0.15473900      0.78898000
C           1.40214500      0.32153200      0.74935300
C           0.48062200     -0.68990400      0.07678600
C           1.32752300      1.66711000      0.04329700
H          -1.44159600     -0.73158300     -0.26379200
H           1.67683800      3.48754000      0.32592900
H           3.26427800     -0.30800400     -0.22772500
H           2.94073500     -1.10849800      1.33477100
H           3.50178700      0.58214600      1.30099200
H           1.05101700      0.47496500      1.78334200
H           0.65051100     -0.65221200     -1.01537700
H           0.73850600     -1.70769000      0.43409400
