12
b3lypvdz=-269.166432637509 
O          -1.69666500     -2.34250100      0.63079000
C          -1.80347300     -1.17801400      0.29266200
C          -3.08481700     -0.47840500      0.06119300
C          -4.26616100     -1.12136900      0.20057700
C          -5.61312100     -0.57764500      0.02214400
C          -5.93471100      0.70066600     -0.24288100
H          -0.89168600     -0.54708300      0.12837800
H          -3.02918000      0.57371500     -0.23679300
H          -4.19977700     -2.17693800      0.48657400
H          -6.42667400     -1.30245800      0.13353400
H          -5.17946600      1.48388900     -0.35484500
H          -6.97756900      1.00614300     -0.35483200
