9
b3lypvdz=-267.041943363007 
O          -0.82515400     -0.24209300      0.02058300
O          -1.73615100     -2.23075900      0.57019600
C          -1.87786200     -1.07032000      0.24826100
C          -3.19233000     -0.41392300      0.03968500
C          -3.33662200      0.88333600     -0.25209000
H          -0.03046600     -0.77835100      0.19339100
H          -4.04875900     -1.08165100      0.15876500
H          -4.32645800      1.32708000     -0.39002500
H          -2.46849800      1.53778200     -0.36066700
