18
b3lypvdz=-272.799408655982 
O          -1.15529500     -0.55082000     -0.28802200
C           2.52712200     -1.43622000     -0.98934700
C           3.26241800     -1.54098700      1.50048400
C           3.03357100     -2.30061000      0.18554700
C           1.00220700     -1.32485300     -1.15208700
C           0.21414500     -0.76886700      0.03581000
H          -1.52675600     -1.40709800     -0.54785100
H           2.96924100     -0.42485900     -0.91089700
H           2.91878300     -1.85805200     -1.93102100
H           3.99969400     -0.73105000      1.36156900
H           2.34040400     -1.07833100      1.89033200
H           3.65284100     -2.21295300      2.28284900
H           3.98969500     -2.76768600     -0.11023600
H           2.33386400     -3.14194600      0.35086000
H           0.77705500     -0.67936200     -2.01955400
H           0.59662900     -2.32669000     -1.40112100
H           0.60536100      0.21967100      0.33149100
H           0.31352300     -1.43318700      0.91839400
