17
b3lypvdz=-251.730916483618 
N           3.09446900     -0.29445400     -0.76503600
C           2.82550000     -0.13731700      0.68018200
C           2.60874600     -1.64271400     -1.10573900
C           1.42106100      0.43565700      0.90683500
C           3.00862300     -1.55087300      1.31451400
C           2.85514000     -2.54781200      0.13111600
H           4.10925500     -0.28659700     -0.89352500
H           3.55684000      0.57930400      1.08874600
H           1.52804000     -1.58260500     -1.32534800
H           3.09839800     -2.00741500     -2.02120000
H           0.63804100     -0.27086400      0.58363600
H           1.29340100      1.36613400      0.33283000
H           1.25220400      0.65097300      1.97514800
H           2.27990900     -1.73593700      2.11955700
H           4.00888000     -1.64134700      1.76828200
H           3.77534200     -3.14110000      0.00273000
H           2.03445000     -3.26643400      0.28457400
