13
b3lypvdz=-344.392140030677 
O          -0.93225000     -0.19539600      0.02775900
O          -1.67414900     -2.23902100      0.59697700
C          -1.91799800     -1.10004800      0.26299200
C          -3.29220900     -0.52102000      0.07271100
C          -4.31955100     -1.37238700      0.24990600
C          -3.40902500      0.90862700     -0.28863400
C          -4.54591000      1.60343900     -0.43782100
H          -0.10010700     -0.67791000      0.18472100
H          -5.35863100     -1.05569200      0.13155500
H          -4.12310400     -2.41052000      0.52139000
H          -2.46164500      1.42733700     -0.44356700
H          -5.53705900      1.16082500     -0.29940900
H          -4.51446100      2.65956600     -0.71538000
