5
b3lypvdz=-189.68378516835 
O           1.91840600      2.62949200      0.84392000
O           0.66375100      1.95068200     -0.91464300
C           1.26050200      1.71668800      0.10341400
H           1.81047400      3.48450900      0.38221900
H           1.35896700      0.72093000      0.58408900
