12
b3lypvdz=-269.166373588125 
O          -1.78092700     -2.22899400      0.46026300
C          -1.91502100     -1.06657200      0.14178600
C          -3.22765800     -0.37230600     -0.00547600
C          -4.42844600     -1.17955800      0.27949300
C          -3.19474000      0.92084600     -0.38627400
C          -5.69915800     -0.75361300      0.29244400
H          -1.02682700     -0.41631300     -0.07204300
H          -4.20676000     -2.22499200      0.51226200
H          -4.09773200      1.51757100     -0.53355300
H          -2.23823300      1.41761900     -0.57294700
H          -5.98118500      0.28255800      0.08159800
H          -6.51381400     -1.44484700      0.52014700
