10
b3lypvdz=-193.03682009863 
O           0.60356000      1.94892400     -0.84796600
C           0.49653600     -0.73323500      0.15579400
C           1.27948100      1.70000000      0.12323900
C           1.36846800      0.34673900      0.79003800
H          -0.56723800     -0.44678900      0.18063800
H           0.76950900     -0.89056700     -0.89956700
H           0.61215500     -1.68916000      0.69022600
H           1.90696500      2.49871500      0.60607000
H           2.43857200      0.05619500      0.77953700
H           1.12269200      0.49557700      1.86019100
