18
b3lypvdz=-272.798751892257 
O          -0.99478500     -0.04177800      0.52788600
C           2.79367600     -0.13410600      0.61716600
C           1.33041500      0.25422200      0.88227600
C           3.22525100     -1.53952100      1.09227000
C           3.10389600     -2.64595600      0.03792200
C           0.26734800     -0.65289200      0.27545100
H          -1.68268600     -0.62824200      0.18262200
H           3.02245900     -0.02914400     -0.46086600
H           3.42094000      0.61747300      1.12540400
H           1.15061700      1.27257100      0.49447900
H           1.15132300      0.30151900      1.97205600
H           2.64934200     -1.81769900      1.99495000
H           4.27872800     -1.49486600      1.41983800
H           3.72702800     -2.41825300     -0.84422700
H           3.44296500     -3.61606100      0.43891300
H           2.06910600     -2.77677500     -0.31875300
H           0.44770900     -0.77568100     -0.81397600
H           0.31946900     -1.66221000      0.73168800
