15
b3lypvdz=-345.606037711644 
O          -0.87393200     -0.24977400      0.29313100
O          -1.67515000     -2.36811000      0.17051600
C           1.38328600      0.40396600      0.68437800
C           0.47514700     -0.76230800      0.35346800
C          -1.86358000     -1.16924200      0.21474500
C          -3.18591700     -0.48916000      0.20284900
C          -4.32105500     -1.19139600      0.13321600
H           2.42950400      0.06110100      0.73216900
H           1.30933900      1.19293500     -0.08064300
H           1.11644600      0.84571300      1.65794400
H           0.72621400     -1.21853700     -0.61881300
H           0.52068500     -1.56214100      1.10957300
H          -3.17101700      0.60197800      0.26165900
H          -5.29683900     -0.70081800      0.12885100
H          -4.28453100     -2.28300600      0.07765500
