12
b3lypvdz=-232.108811869511 
C          -3.19981800     -0.44537800      0.06048800
C          -4.34101800     -1.23517400      0.23379200
C          -3.32987800      0.90769300     -0.26921600
C          -5.61247900     -0.67232800      0.07935900
C          -4.60135400      1.47056500     -0.42358700
C          -5.74255100      0.68078300     -0.25023000
H          -2.20728700     -0.88597500      0.18666200
H          -4.23867800     -2.29079700      0.49828400
H          -2.43866700      1.52413600     -0.41080200
H          -6.50373000     -1.28875600      0.22076700
H          -4.70366300      2.52619500     -0.68806400
H          -6.73507600      1.12143600     -0.37625300
