13
b3lypvdz=-344.397256625069 
O          -0.76683600     -0.35970000     -0.02582500
O          -1.67642800     -2.25626000      0.78411600
C          -1.81930600     -1.15183400      0.29814400
C          -3.09873900     -0.48451600     -0.02551800
C          -4.26907200     -1.10919300      0.21174200
C          -5.61242300     -0.58562900     -0.03474000
C          -5.94742800      0.70998100     -0.15332500
H           0.02914900     -0.86522000      0.22174600
H          -3.03518100      0.50966100     -0.47233000
H          -4.19692500     -2.12295700      0.62075600
H          -6.40507000     -1.33948800     -0.09958000
H          -5.20915600      1.51056600     -0.05134500
H          -6.97968600      1.01158900     -0.34454200
