17
b3lypvdz=-346.821831441953 
O          -0.81791000     -0.24762600      0.08262800
O          -1.61869800     -2.34472900      0.47242700
C           2.51218000     -1.70600200     -1.10593700
C           1.31291200      0.50128200      0.81364300
C           1.07634800     -1.17155200     -1.13601600
C           0.57085200     -0.69021300      0.22702800
C          -1.77861600     -1.17361000      0.23424600
H           3.24419300     -0.91757100     -0.86736700
H           2.62736700     -2.50849600     -0.35731600
H           2.79071100     -2.13066800     -2.08398200
H           2.34841900      0.22648500      1.06672900
H           1.33499800      1.34505200      0.10421900
H           0.81515700      0.83896500      1.73533900
H           0.98531100     -0.34086800     -1.85911900
H           0.39960000     -1.97059900     -1.48165100
H           0.57414700     -1.53795400      0.93120000
H          -2.76497000     -0.67839600      0.10933000
