19
b3lypvdz=-310.889820615987 
O           0.48538700      1.95911800     -0.72431500
C           2.92972800     -0.15919400      0.77184000
C           1.43663800      0.23773600      0.71119900
C           3.19451200     -1.43575700      1.57172100
C           0.84327300     -1.19967900     -1.37078500
C           0.49298100     -0.79301100      0.06528100
C           1.29315300      1.62742500      0.11463100
H           3.32817400     -0.27180500     -0.25173800
H           3.49385400      0.67530300      1.22620200
H           1.11632700      0.37885600      1.76676000
H           2.72497900     -2.31664400      1.10557000
H           2.79446300     -1.35266800      2.59726400
H           4.27522100     -1.63758500      1.64578800
H           1.84039500     -1.66617900     -1.44013600
H           0.82139100     -0.32923500     -2.04423500
H           0.11718500     -1.93651600     -1.75022700
H          -0.52392800     -0.36728400      0.07817100
H           0.46213000     -1.68991100      0.70678100
H           2.01093700      2.37983000      0.54363000
