17
b3lypvdz=-346.798055647844 
O          -0.73465900     -0.54711900      0.39495800
O          -0.09555500      1.77018100     -1.04834300
C           2.53290900     -1.99413100     -0.88946300
C           1.36193500      0.68528000      0.55275200
C           1.12985000     -1.38259100     -0.96955700
C           0.67777300     -0.67769600      0.32422900
C           0.89761300      1.80382400     -0.34915300
H          -0.96923400      0.11264200     -0.28134700
H           3.31214300     -1.23351800     -0.71164800
H           2.60025200     -2.73404100     -0.07284400
H           2.79510800     -2.51532300     -1.82470900
H           2.46340500      0.61873000      0.48520900
H           1.14954000      1.04056100      1.58189100
H           1.05982400     -0.68105200     -1.82149300
H           0.38966000     -2.17617700     -1.16500500
H           0.95320200     -1.33158100      1.17112400
H           1.52983200      2.73001100     -0.32310000
