20
b3lypvdz=-328.112564993135 
O          -1.00818100     -0.32746100     -0.04290000
N           3.27668500     -0.23223700     -0.72536500
C           2.55177900     -1.49125900     -0.93948100
C           2.86686400     -2.59004000      0.09237400
C           1.04281200     -1.20445400     -1.06878700
C           0.36259700     -0.63603300      0.18037100
C           4.71317000     -0.29239900     -0.96830200
H          -1.44127400     -1.14643500     -0.32696400
H           3.11655100      0.09044300      0.23080600
H           2.88608800     -1.86286900     -1.92608600
H           2.64046400     -2.25003600      1.11808700
H           3.93139300     -2.87173100      0.06419400
H           2.27708400     -3.50205400     -0.09914000
H           0.89112000     -0.48352900     -1.88814400
H           0.52976900     -2.14305600     -1.35534800
H           0.82964800      0.32151600      0.46411200
H           0.47987300     -1.32435800      1.04180100
H           4.89338400     -0.58446600     -2.01782600
H           5.28544700     -0.99818000     -0.32897900
H           5.14922700      0.70983600     -0.82532200
