16
b3lypvdz=-271.606236354222 
O           0.51130900      2.00252300     -0.73048200
C           2.86706600     -0.15461300      0.74143300
C           1.38154000      0.27822200      0.74431400
C           3.12509700     -1.50711100      1.40828600
C           0.43273900     -0.71574500      0.07584200
C           1.27660300      1.66958500      0.14524100
H           3.22905100     -0.18494200     -0.30272500
H           3.46324700      0.62294400      1.25134300
H           1.09009300      0.40900900      1.80850600
H           2.62853100     -2.32838800      0.86883900
H           2.75340700     -1.52048700      2.44760500
H           4.20360000     -1.73168900      1.43209400
H          -0.57910600     -0.29230200     -0.00623100
H           0.77094100     -0.95811100     -0.94535500
H           0.37396800     -1.65303200      0.64857600
H           1.99681500      2.41023700      0.58991300
