17
b3lypvdz=-346.798633155238 
O          -0.76795500     -0.55267400      0.55416900
O           0.09344300      1.59740900     -1.04233900
C           2.97928900      0.17958000      0.64947000
C           1.46497100      0.41927300      0.58344400
C           0.85679800     -1.56803900     -0.96313800
C           0.60797100     -0.85506300      0.37296000
C           1.11829600      1.52910200     -0.39267800
H          -0.98123700      0.10595800     -0.12978900
H           3.38789100     -0.18117500     -0.30842600
H           3.21546800     -0.57400200      1.41697900
H           3.51506400      1.10458300      0.91872200
H           1.14272200      0.83871500      1.56006200
H           1.89359000     -1.93418100     -1.04948300
H           0.65081600     -0.90148600     -1.81633000
H           0.18384600     -2.43528700     -1.03960500
H           0.85920500     -1.55443700      1.18889300
H           1.88002300      2.34942400     -0.46781000
