11
b3lypvdz=-268.247459938603 
O          -0.82883700     -0.19862800      0.11743400
O          -1.69330700     -2.29053600      0.36707500
C           0.98892500     -1.24872000     -1.15658500
C           0.52652800     -0.72191700      0.19183900
C          -1.82118400     -1.10077200      0.21623500
H           2.04371100     -1.56364100     -1.09211400
H           0.90358300     -0.47197100     -1.93293300
H           0.39217900     -2.12229100     -1.45686600
H           1.12428200      0.13884500      0.52212500
H           0.55841800     -1.51049100      0.95822800
H          -2.79079700     -0.56627700      0.13806100
