13
b3lypvdz=-323.583734337909 
O           2.11197100      2.60434400      0.64898000
O           0.36405800      2.03471000     -0.64625800
N           3.28269400     -0.23995500     -0.68948200
C           2.83476800     -0.17007300      0.70163000
C           1.39008000      0.33995900      0.76717500
C           1.20963500      1.71657700      0.15785400
H           1.92485700      3.44528900      0.19201400
H           2.75273000     -0.96101300     -1.18518600
H           4.25653500     -0.54839900     -0.72276400
H           2.89037500     -1.12960800      1.25781600
H           3.48207100      0.54365100      1.23576100
H           0.69966800     -0.33775100      0.24330600
H           1.07215700      0.39027000      1.82305400
