16
b3lypvdz=-271.605228552308 
O           0.48573000      1.92435500     -0.80333200
C           2.92490400     -0.06968900      0.92012600
C           1.44312300      0.30431600      0.73898800
C           0.91719200     -1.21170200     -1.31298700
C           0.56245500     -0.79747000      0.12062500
C           1.29859200      1.65086500      0.05051400
H           3.41060400     -0.31918600     -0.03663900
H           3.02054000     -0.94319900      1.58419500
H           3.48879400      0.75848600      1.38137900
H           1.05167400      0.51645600      1.75783300
H           1.94218700     -1.61120700     -1.39419500
H           0.81927700     -0.36068400     -2.00402500
H           0.23515600     -2.00379400     -1.66189600
H          -0.48119000     -0.44107500      0.13738200
H           0.60569900     -1.68071100      0.78221300
H           2.01346200      2.43273900      0.42991900
