11
b3lypvdz=-268.254030275465 
O           1.92078800      2.64517000      0.86613800
O           0.68228900      1.96116400     -0.89838000
C           1.38337300      0.34999800      0.77235900
C           1.26926700      1.71055800      0.12942200
C           1.86396200      3.98331300      0.34811000
H           2.44320600      0.07309900      0.88507200
H           0.86135500     -0.39000400      0.15472700
H           0.94049300      0.37443600      1.78061700
H           0.82154300      4.32867400      0.27014200
H           2.32763500      4.03691300     -0.64918700
H           2.42148900      4.60418000      1.06028000
