14
b3lypvdz=-307.551848349516 
O           2.09918400      2.61442100      0.65673000
O           0.36249900      2.02618200     -0.64333700
C           2.89204100     -0.12648900      0.76457800
C           1.42546700      0.33001800      0.73772600
C           3.05696100     -1.53412100      1.34032700
C           1.21193800      1.71241800      0.15964500
H           1.87496000      3.46084500      0.22691700
H           3.30358400     -0.09444000     -0.25988500
H           3.47999400      0.59535300      1.35421800
H           0.79516600     -0.35919400      0.15634200
H           1.02626900      0.34350000      1.76965300
H           2.48445700     -2.27847100      0.76260400
H           2.70317200     -1.58514900      2.38520200
H           4.11471100     -1.84437200      1.32868000
