17
b3lypvdz=-251.720611117728 
N           3.19434900     -0.27171000     -0.69654100
C           2.91029600     -0.14722500      0.74092900
C           2.58071400     -1.56137800     -1.04573800
C           3.03704800     -1.56937500      1.35982800
C           2.82155900     -2.52421000      0.15155500
C           4.62434900     -0.22956900     -0.99598600
H           1.87379100      0.21789000      0.85661200
H           3.57190400      0.59745600      1.20865500
H           1.49663400     -1.39872500     -1.18483700
H           2.97994400     -1.93774600     -1.99985000
H           2.30052500     -1.72750800      2.16253000
H           4.03267500     -1.72198800      1.80622600
H           3.71536900     -3.14548000     -0.01685000
H           1.97511700     -3.21340100      0.29664300
H           4.77572900     -0.36457100     -2.07943400
H           5.24026200     -0.99342800     -0.47114200
H           5.02553600      0.76056600     -0.72480000
