19
b3lypvdz=-252.929247346996 
N           3.24827600     -0.23519200     -0.74166000
C           2.55271900     -1.51152800     -0.95228900
C           2.89511800     -2.59780100      0.08282300
C           1.03707900     -1.25516600     -1.06989800
C           0.37299800     -0.67865600      0.18694200
C           4.68636700     -0.25985700     -0.97684500
H           3.07427200      0.08482900      0.21276300
H           2.89179400     -1.87820800     -1.93959900
H           2.65645600     -2.26024100      1.10681700
H           3.96698200     -2.85153000      0.05907400
H           2.32996000     -3.52568800     -0.10736500
H           0.88536900     -0.55253400     -1.90617500
H           0.53940200     -2.20083900     -1.35037900
H          -0.69667500     -0.48272600      0.00750600
H           0.83118600      0.28153300      0.47727600
H           0.44309300     -1.36310300      1.04857400
H           4.88043300     -0.55274400     -2.02367600
H           5.27332800     -0.94700700     -0.33038500
H           5.09594100      0.75415900     -0.83710100
