69
b3lypvdz=-1314.015274289936 
C           1.37477900      0.95739100      0.72911500
C          -0.07134400      0.94863900      0.22123100
C           2.08800600     -0.37008900      0.34062800
C           2.15756200      2.17241500      0.19879100
C          -0.93507500     -0.24329500      0.72742800
C           3.55758200     -0.42608500      0.89430400
C          -2.30781500      0.12194800      0.05689500
C          -0.23960000     -1.53628200      0.23941600
C           4.35951600      0.81648500      0.36727600
C          -3.61174700     -0.59064600      0.49771700
C           5.56210000     -0.57866000     -1.39125600
C          -4.79020700     -0.01742500     -0.32065500
C          -6.18286300     -0.57083600      0.01927300
C          -1.08132600     -0.28828200      2.26293100
C           3.57485000     -0.42018200      2.44062200
C          -3.54082700     -2.11885100      0.37247600
H           2.54499700      2.91327000     -1.57507600
H           0.22983400     -2.29688300     -1.50230900
H           6.41111700     -1.39329300     -2.94655500
O          -7.30668000      1.48655700     -0.60478500
C          -0.94222100      2.18417400      0.47217100
C           1.22908500     -1.60059900      0.71127800
C           3.62448800      2.14422500      0.64660200
C          -2.38730700      1.67407400      0.23282100
C           4.30842200     -1.72023800      0.46386500
C           4.78028300      0.69851900     -1.11440000
C           4.71359900     -1.79423400     -1.01349800
O           2.02670100      2.17166000     -1.23021400
O          -0.31988800     -1.56348900     -1.19079300
O           5.93760400     -0.56759400     -2.76752100
O          -8.24741100     -0.47362700     -1.18182300
C          -7.27320100      0.27579200     -0.60594800
H          -8.90054400      0.16434600     -1.52678200
H           1.36143600      1.05948000      1.82900600
H          -0.01150900      0.81617900     -0.86975700
H           2.14925600     -0.35769900     -0.75967200
H           5.29819900      0.84556200      0.95087600
H           1.68942700      3.08987600      0.60824800
H          -0.81875100      2.55687500      1.50455100
H          -0.67911600      3.01183600     -0.20197600
H           1.67027400     -2.50874900      0.26454200
H           1.23987600     -1.77646200      1.79959400
H           4.16602300      2.97357600      0.15356600
H           3.65243300      2.37201800      1.72650600
H          -2.17802200     -0.09706700     -1.01560400
H          -0.75959600     -2.42062100      0.65389500
H          -1.54399100      0.62956500      2.65619600
H          -1.72261600     -1.12881600      2.57502200
H          -0.11910500     -0.40840800      2.78195400
H          -2.83467000      2.14811700     -0.65256300
H          -3.04207800      1.93396100      1.08217400
H           5.22997800     -1.78250100      1.07022700
H           3.71684400     -2.60625500      0.74414500
H           3.10196600     -1.32491800      2.85402400
H           4.61400400     -0.40311000      2.80808500
H           3.05910900      0.44287400      2.88417200
H          -3.80293300     -0.34229600      1.56066900
H           3.90398900      0.73214700     -1.77904500
H           5.40932400      1.56525500     -1.38232000
H           3.83337500     -1.83150900     -1.67891600
H           5.28761000     -2.72311800     -1.19231600
H          -4.84168700      1.07245700     -0.18145400
H          -4.59481200     -0.19049800     -1.39618600
H          -2.77636800     -2.54937500      1.03409900
H          -4.49685400     -2.59114800      0.65014800
H          -3.29533000     -2.42369900     -0.65908800
H           6.47361500     -0.58094600     -0.75344400
H          -6.31843800     -1.61688100     -0.28912600
H          -6.34412900     -0.52304300      1.11299300
