39
b3lypvdz=-947.526160453829 
O          -5.40664700     -2.02545500     -0.18373700
N           3.58205400      0.40460100      0.05537800
N          -0.89437000      1.54536400      0.11445000
N           1.23341000      2.33044600      0.04515400
N           1.98934000     -1.30209800      0.25344400
N          -0.40682500     -0.86646800      0.24950700
N           0.45009600     -3.00039800      0.52041800
C           4.69456500     -0.45968500      0.32130400
C           5.35328200     -1.18537500     -0.82757100
C           6.04183600     -0.00612300     -0.17803000
C          -2.36061200      1.61535300      0.02166900
C          -3.12469000      0.73856800      1.05719600
C          -4.24118100      0.00033800      0.26618600
C          -2.90241900      1.15634300     -1.31663900
C          -3.92326500      0.30655000     -1.17983300
C           2.28162400     -0.00049000      0.14472600
C          -0.07002400      0.43195300      0.15453500
C           1.23131900      0.94752800      0.11131500
C          -4.30103200     -1.50305900      0.54558200
C          -0.04103300      2.64021400      0.04726500
C           0.68062500     -1.65564600      0.31673300
H           4.65069400     -0.99182400      1.27804900
H           4.91563100     -1.02891500     -1.81593200
H           5.74768900     -2.18694700     -0.63921600
H           6.90945700     -0.18560500      0.46035900
H           6.07629700      0.92826900     -0.74475300
H          -2.58899800      2.68508700      0.17489000
H          -3.53362400      1.35368500      1.87179900
H          -2.42823900      0.01224800      1.49980700
H          -5.23839300      0.40700500      0.51999800
H           3.71732400      1.40406900      0.17158400
H          -2.48891100      1.52767700     -2.25745800
H          -4.49112200     -0.14647100     -1.99473600
H          -4.42207700     -1.67555400      1.63562800
H          -3.34313000     -1.96251900      0.23063400
H          -0.44317600      3.65180900      0.00388300
H          -5.38116600     -2.99004300     -0.12105900
H           1.21947900     -3.60322900      0.25031600
H          -0.47178600     -3.32030400      0.24575900
