18
b3lypvdz=-310.61135003476 
     C      4.70433600     -8.04488500      0.00000000
     C      4.71465000     -9.39217900     -0.00000000
     C      5.91957800    -10.20133400     -0.00000000
     C      5.92506300    -11.55972300     -0.00000000
     C      7.12412400    -12.36791900     -0.00000000
     C      7.12961800    -13.72630300      0.00000000
     C      8.33455000    -14.53547200     -0.00000000
     C      8.34487300    -15.88276200      0.00000000
     H      5.63177800     -7.46362100      0.00000000
     H      3.75858100     -9.93013200     -0.00000000
     H      6.87494000     -9.66198000      0.00000000
     H      4.96836500    -12.09690200     -0.00000000
     H      8.08081800    -11.83073100     -0.00000000
     H      6.17428300    -14.26570400      0.00000000
     H      9.29059200    -13.99747200     -0.00000000
     H      7.41743800    -16.46403600      0.00000000
     H      9.28400600    -16.44152700     -0.00000000
     H      3.76520500     -7.48611800      0.00000000
