10
b3lypvdz=-155.891214860366 
C           7.10273100    -12.38350100     -0.00000000
C           7.12008500    -13.72773300      0.00000000
C           8.33704400    -14.53235000      0.00000000
C           8.35443000    -15.87658100     -0.00000000
H           6.16057700    -11.82915200     -0.00000000
H           8.02754400    -11.79757500     -0.00000000
H           6.16815900    -14.27311000      0.00000000
H           9.28895500    -13.98696000      0.00000000
H           7.42960200    -16.46248200     -0.00000000
H           9.29657300    -16.43095400     -0.00000000
