6
b3lypvdz=-78.533010260075 
C          -8.35210100     15.87553100      0.00000000
C          -8.32779900     14.54156900      0.00000000
H          -7.42806800     16.46295500      0.00000000
H          -9.29689600     16.42900300     -0.00000000
H          -7.38300400     13.98809700     -0.00000000
H          -9.25183200     13.95414500      0.00000000
