13
b3lypd3vdz=-394.766779955788 
C          -2.82981000     -0.72099400      0.06049600
C          -1.40856900     -0.95961500     -0.04723200
O          -0.80685900     -2.02170000     -0.07987800
N          -0.67750800      0.26017300     -0.11926200
C          -1.25194900      1.49821400     -0.11812700
N          -0.40942500      2.57706400     -0.27109300
N          -2.54637700      1.69515700     -0.02932200
C          -3.31019900      0.55970400      0.05117700
H          -3.47928000     -1.59244600      0.13377000
H           0.32510600      0.15089800     -0.25159100
H          -0.87947500      3.45481100     -0.06584300
H           0.50445100      2.50182600      0.16675700
H          -4.38660500      0.74570900      0.12134800
