9
b3lypd3vdz=-171.92731549075 
     N     -2.47784000      1.67333900     -0.08479100
     C     -3.27785400      0.50263000      0.00089000
     C     -2.89730300     -0.78350100      0.01894100
     C     -1.20732900      1.59690100     -0.12300800
     H     -4.34665200      0.73535100      0.05668600
     H     -3.65065100     -1.57085200      0.08907000
     H     -1.85260400     -1.10368000     -0.03587900
     H     -0.62381300      0.65648800     -0.09321200
     H     -0.63015400      2.52942300     -0.19049700
