17
b3lypd3vdz=-488.427922731311 
N           4.37057300      0.91726300     -0.17338900
C           3.03538900      1.07421100      0.19796500
O           2.61373600      2.10670200      0.68712400
N           2.19854300     -0.03408400     -0.01769700
C           2.65380800     -1.23089300      0.20845500
N           1.89914800     -2.32488100      0.04200400
C          -1.38006600     -0.94384300     -0.14033900
O          -0.88357500     -2.06377600     -0.30029300
N          -0.70438500      0.20644000     -0.01271200
H           4.55208600      0.33079900     -0.98232300
H           4.87590800      1.79904100     -0.18475300
H           3.68524000     -1.40426500      0.56057100
H           0.88193800     -2.21594300     -0.14187500
H           2.24014500     -3.20904500      0.39514300
H          -2.48734800     -0.82284600     -0.08569700
H          -1.20950000      1.07409000      0.11704800
H           0.33395800      0.22723100     -0.05503100
