6
b3lypd3vdz=-169.81819220888 
N           4.29979300      0.91354900      0.12143700
C           2.95237000      1.11020000      0.11013100
O           2.40744500      2.19225600      0.17787100
H           4.70514100     -0.01251800      0.08360300
H           4.90926200      1.72133600      0.19513400
H           2.38938900      0.14497600      0.03922300
