17
b3lypd3vdz=-397.140445307889 
N           2.08970600      0.02768400     -0.20236600
C           2.67839100     -1.12755400     -0.17568700
N           1.95645400     -2.28638700     -0.20203300
C           4.15759900     -1.32735200     -0.17052400
C           5.04195000     -0.41424600      0.24217300
C          -1.41457200     -0.95312900      0.16323200
O          -0.89137600     -2.06474800      0.25521400
N          -0.76014900      0.21218000      0.04117200
H           2.77958200      0.77589500     -0.30327500
H           0.94147400     -2.22614800     -0.02060100
H           2.41038900     -3.10993700      0.17677900
H           4.51069700     -2.30526000     -0.51870600
H           4.72454800      0.56189400      0.62278700
H           6.11496600     -0.62128500      0.22115400
H          -2.52642000     -0.84352800      0.18775000
H          -1.29506200      1.06258100     -0.08609500
H           0.28322400      0.22703900     -0.05187400
