7
b3lypd3vdz=-149.927482996371 
     N     -2.54005100      1.76481600     -0.10482500
     N     -0.67439500      0.24728000     -0.08541500
     C     -1.29345100      1.48566200     -0.11248500
     H      0.28689800      0.21753500      0.23862700
     H     -3.09544500      0.89912800     -0.01387300
     H     -1.23525800     -0.53861500      0.23221100
     H     -0.57199700      2.31489400     -0.20474100
