11
b3lypd3vdz=-318.568452770104 
C          -1.32057200     -0.96198500      0.10834900
O          -0.80036900     -2.04351900     -0.05976700
N          -0.71726400      0.23627700     -0.20545400
C          -1.33213000      1.50913600     -0.15843000
N          -0.38200900      2.52542700     -0.13885000
N          -2.58310800      1.77434200     -0.18048500
H          -2.33315700     -0.82288300      0.54957000
H           0.22090200      0.17268900     -0.59500300
H          -0.82490800      3.43508900     -0.02833600
H           0.37822700      2.38578500      0.52426300
H          -3.13811200      0.93914200     -0.38445600
