11
b3lypd3vdz=-227.286050599492 
C          -2.93915100     -0.79806900     -0.19269200
C          -1.22185600      1.57313000      0.12412100
N          -0.35405500      2.55580300     -0.25788200
N          -2.46843600      1.60655800     -0.16904200
C          -3.25092000      0.47932000      0.08982100
H          -3.64042800     -1.60464200      0.02865200
H          -1.99638600     -1.05789600     -0.68145600
H          -0.75341200      0.74200800      0.68545900
H          -0.75549500      3.38747600     -0.67738500
H           0.51193500      2.67299300      0.25106400
H          -4.23359600      0.71902000      0.51344000
