9
b3lypd3vdz=-263.220937990946 
C          -1.35129600     -1.00256600     -0.02835900
O          -0.75822500     -2.05727700      0.00764800
N          -0.71757500      0.22156500     -0.09550400
C          -1.31428800      1.49290100     -0.12528500
N          -2.54073500      1.82562500     -0.08569800
H          -2.46067900     -0.92562300      0.02214800
H           0.29759200      0.16437900     -0.13668800
H          -0.55728700      2.28882500     -0.19519900
H          -3.16270600      1.00947000     -0.01836400
