19
b3lypd3vdz=-564.620430390752 
N           4.33182000      0.91249800      0.06685400
C           2.92850900      1.09599400     -0.05198700
O           2.48303200      2.23338400     -0.07290400
N           2.16645500     -0.04210200     -0.13062600
C           2.72220600     -1.25188600     -0.05505400
N           1.91930900     -2.32513800     -0.15026700
C           4.14752100     -1.43625600      0.10583800
C           4.90983500     -0.31203800      0.16220100
C          -1.38723100     -0.91914400      0.00280700
O          -0.89682800     -2.03427800     -0.19908900
N          -0.70589200      0.23144300      0.09055400
H           4.87454000      1.76580800      0.13985900
H           0.88869300     -2.21572700     -0.17791300
H           2.30349300     -3.24236400      0.03231000
H           4.59404000     -2.42613400      0.18170200
H           5.99470000     -0.33784900      0.28518400
H          -2.48930900     -0.80415400      0.13435500
H          -1.20323400      1.09680700      0.25817000
H           0.32644100      0.24183700     -0.03789400
