11
b3lypd3vdz=-318.575017383128 
N           4.36728300      0.95728800     -0.18066200
C           3.02038800      1.04719800      0.17017200
O           2.55420800      2.01784100      0.73510500
N           2.25261300     -0.07689200     -0.19319600
C           2.62576200     -1.22457000      0.23964300
N           1.98220100     -2.37658000     -0.10404300
H           4.58020800      0.40120300     -1.00383100
H           4.85229300      1.85000400     -0.14371000
H           3.50663200     -1.37559100      0.88944600
H           1.07909000     -2.27381600     -0.55805500
H           2.10752100     -3.19468700      0.47853100
