10
b3lypd3vdz=-301.252856416381 
N          -3.71143700     -1.64353800     -0.00014200
C          -2.87745500     -0.67364900     -0.00008200
C          -1.40037600     -1.02959300      0.01257900
O          -0.99373800     -2.16421500      0.01847200
N          -2.59343800      1.82353000     -0.02285900
C          -3.29979300      0.76327900     -0.01061000
H          -4.67610500     -1.27162200     -0.00785300
H          -0.69013100     -0.16461600      0.01780200
H          -1.58579600      1.60880400     -0.02433700
H          -4.39893200      0.89322000     -0.00857000
