21
b3lypd3vdz=-474.501098335035 
N           2.20587800      0.06893900     -0.13637100
C           2.73571400     -1.11434400     -0.10141700
N           1.95480700     -2.23134800     -0.09102400
C           4.20171300     -1.38943600     -0.11598200
C           5.13071500     -0.54237300      0.33785400
C          -2.86764400     -0.67200300     -0.01272400
C          -1.37546700     -0.77589000      0.05002600
O          -0.87066500     -1.89530300      0.23615500
N          -0.65342300      0.35684600     -0.07437100
C          -3.58342400      0.45259900      0.08711900
H           2.92737000      0.77827400     -0.26926800
H           0.94065500     -2.11235100      0.06203300
H           2.36926500     -3.08638200      0.25735300
H           4.50263100     -2.36448500     -0.51154000
H           4.85613400      0.42491000      0.77018700
H           6.19307700     -0.79238800      0.30309900
H          -3.35628500     -1.64491400     -0.10790000
H          -1.10660800      1.19702800     -0.40793000
H           0.38792700      0.30636900     -0.09422000
H          -4.67580800      0.43890300      0.05261100
H          -3.11156000      1.42985100      0.22690900
