9
b3lypd3vdz=-263.225951101278 
N           4.39104700      1.40341400     -0.47860700
C           3.50859000      0.66738700      0.24184300
O           2.98057700      1.02690000      1.27866300
N           3.29604200     -0.61564100     -0.41726800
C           2.37253300     -1.31264800      0.11511100
H           4.77630400      1.02352300     -1.33267600
H           4.63066800      2.33487700     -0.16554600
H           2.13727300     -2.29388300     -0.31679100
H           1.80696500     -0.95882900      0.99457000
