9
b3lypd3vdz=-226.110417447295 
N          -4.64584900      0.47591700      0.07227100
C          -4.95657200     -0.85730400      0.12627600
N          -3.87368000     -1.60859600      0.09670600
C          -2.81768400     -0.72550700      0.02100000
C          -3.27170900      0.57582400      0.00192700
H          -5.30474700      1.24357600      0.08150200
H          -5.98182100     -1.21709700      0.18868500
H          -1.78851000     -1.07686000     -0.01900700
H          -2.75972800      1.53174800     -0.05446000
