8
b3lypd3vdz=-187.985018891676 
C          -2.94840900     -0.71455200      0.03256300
N          -2.49252600      1.70918100     -0.08704800
C          -3.30500100      0.73067500     -0.01029100
N          -3.76080900     -1.69320100      0.10829400
H          -1.86621100     -0.93780100     -0.00805800
H          -1.52141800      1.35408000     -0.11739800
H          -4.38714500      0.95405100      0.03095100
H          -4.73198100     -1.33823200      0.13828700
