13
b3lypd3vdz=-394.765903206141 
N           4.32012800      0.90385200      0.09926400
C           2.90350500      1.09035700      0.11827200
O           2.47333700      2.22791100      0.17871200
N           2.13965900     -0.05328500      0.06938100
C           2.72262400     -1.23388100      0.01198300
N           1.90119800     -2.32601400     -0.11212200
C           4.15051100     -1.43872700      0.02801500
C           4.91436100     -0.31242600      0.06902400
H           4.86533900      1.75850900      0.13236500
H           0.92505600     -2.13462600      0.09497500
H           2.24963700     -3.21469200      0.22947800
H           4.59630900     -2.43088700     -0.01167900
H           6.00633500     -0.33019100      0.07573300
