18
b3lypd3vdz=-468.532970716704 
N           1.94844300     -2.32401900     -0.14784500
N           2.11869500     -0.00785700     -0.07065300
C           2.66128400     -1.17894900     -0.09936800
C          -1.42470000     -0.95614700      0.15781000
O          -0.93321800     -2.07858000      0.25402900
N          -0.71612700      0.18388900     -0.01886700
C          -1.28546000      1.47224600     -0.13915100
N          -0.30280400      2.44946600     -0.08015900
N          -2.51154500      1.79568800     -0.33020200
H           0.92754600     -2.29926100     -0.01282600
H           2.43072700     -3.19802900      0.01839900
H           2.83703600      0.71681700     -0.09786400
H           3.75560000     -1.33126400     -0.11531500
H          -2.52413900     -0.80583900      0.22347500
H           0.33300100      0.10948400     -0.04120500
H          -0.69742200      3.38085000      0.01965700
H           0.47537800      2.25779900      0.54726900
H          -3.10189300      0.97730700     -0.49668200
