10
b3lypd3vdz=-247.170507242937 
N           4.22792000      0.90661400      0.10741900
C           2.88700600      1.20885000      0.12404300
O           2.46573800      2.34631100      0.18433400
C           4.24327300     -1.55845600     -0.00910400
C           4.83264800     -0.35626100      0.05448800
H           4.82921000      1.72417100      0.15394300
H           2.22822600      0.31344200      0.07647600
H           3.16169900     -1.70611700     -0.03359200
H           4.86948100     -2.45018500     -0.04183200
H           5.92409900     -0.28916800      0.07282500
