11
b3lypd3vdz=-339.393612194065 
N          -4.66810800      0.48498900      0.06208700
C          -4.92421800     -0.86890700      0.10843900
N          -3.82038300     -1.57499400      0.08767100
C          -2.79321800     -0.64743400      0.02555100
C          -1.36928500     -0.99621600     -0.01114300
O          -0.91862900     -2.12117200      0.01618100
C          -3.30827100      0.63996800      0.00622400
H          -5.35625900      1.22808400      0.06767000
H          -5.93661200     -1.26581500      0.15880400
H          -0.69478400     -0.09898400     -0.06894200
H          -2.83223300      1.61518000     -0.04104100
