13
b3lypd3vdz=-319.780373850571 
N           1.92174600     -2.33871300     -0.15553900
N           2.20303800     -0.02874300     -0.04958700
C           2.68199700     -1.22589000     -0.00271400
C          -1.38773500     -0.92202600      0.01203100
O          -0.94079400     -2.06830000      0.07771500
N          -0.66825200      0.21219500     -0.01241100
H           0.89641900     -2.24451000     -0.06609900
H           2.32227100     -3.20639000      0.17942800
H           2.95212300      0.65971100      0.04622900
H           3.75863100     -1.43780500      0.13442400
H          -2.49048500     -0.75222000     -0.02663200
H          -1.16734500      1.08764900     -0.11164500
H           0.37628500      0.20164100     -0.04440000
