11
b3lypd3vdz=-227.271979319037 
     N     -4.55145900      0.71861300     -0.06068400
     C     -2.76250100     -0.91192100      0.25968600
     C     -1.33144700      1.60300900     -0.25902200
     N     -2.40884800      1.48873800      0.40884500
     C     -3.22681900      0.35432300      0.19232200
     H     -4.78356700      1.61244500      0.36752800
     H     -5.23122500      0.00557700      0.19013600
     H     -3.44485800     -1.76100500      0.18777700
     H     -1.71098700     -1.11084100      0.45797500
     H     -1.02293100      0.87719500     -1.03329500
     H     -0.66995800      2.45656700     -0.05616900
