11
b3lypd3vdz=-339.418751236747 
C          -2.82742100     -0.70804600      0.02034400
C          -1.39782600     -0.95504300     -0.02675400
O          -0.81173300     -2.02471600     -0.01475000
N          -0.67178300      0.26232000     -0.09584400
C          -1.24920300      1.49273500     -0.11591000
N          -2.53221700      1.70476400     -0.07488500
C          -3.31236700      0.56766500     -0.00503600
H          -3.47864800     -1.58086300      0.07750600
H           0.34082300      0.16660000     -0.13520800
H          -0.55803000      2.34100100     -0.17076700
H          -4.38989500      0.75458200      0.03220300
