13
b3lypd3vdz=-282.625240733111 
N          -4.54585300      0.71162800      0.22784600
C          -2.80724500     -0.91626600     -0.26331000
C          -1.28330200      1.54681000      0.11363800
N          -0.38601000      2.52827200     -0.20796200
N          -2.45390900      1.49548900     -0.40485300
C          -3.24345200      0.36224600     -0.15078700
H          -5.24236200      0.00398800      0.01252200
H          -4.81182400      1.61984100     -0.14452600
H          -3.48387500     -1.75474500     -0.08590200
H          -1.78764100     -1.13134200     -0.57855300
H          -0.90036600      0.78538900      0.81656400
H          -0.75108900      3.31280600     -0.73977300
H           0.34052700      2.74768500      0.46269600
