18
b3lypd3vdz=-489.386905822462 
N           1.93842300     -2.36292500     -0.12883100
N           2.12363300     -0.04678000     -0.02388700
C           2.65551900     -1.22655900     -0.03196700
C          -2.83630700     -0.68972900      0.02637400
C          -1.41242800     -0.93562800      0.07196100
O          -0.87085600     -2.04673800      0.15427100
N          -0.65508400      0.23943400      0.01005800
C          -1.21983000      1.46421700     -0.07762500
N          -2.50536700      1.71182900     -0.11332000
C          -3.30105200      0.59486700     -0.06324100
H           0.90852200     -2.32552000     -0.04361900
H           2.40763100     -3.24393700      0.02745000
H           2.84550200      0.67274900      0.03190300
H           3.74766600     -1.38342200      0.01926700
H          -3.50717600     -1.54832500      0.06079000
H           0.40648300      0.15134800     -0.00485700
H          -0.51715300      2.30359600     -0.12133200
H          -4.37902700      0.78692300     -0.10349600
