9
b3lypd3vdz=-205.273396507758 
N          -0.40926100      2.56011400     -0.25936000
N          -2.57493900      1.74185600     -0.02923000
N          -0.67417300      0.25993300     -0.08202500
C          -1.31737700      1.50400500     -0.11980700
H          -0.87778300      3.44804100     -0.09127200
H           0.41277800      2.46536700      0.33548000
H          -3.10226600      0.86169300     -0.05258100
H          -1.29371200     -0.52950600     -0.23887400
H           0.14963300      0.20509700     -0.67803200
