22
b3lypd3vdz=-545.892314206103 
N           2.09585900      0.07146500     -0.07122800
C           2.68281200     -1.08404500     -0.17580200
N           1.95814400     -2.23607600     -0.25082100
C           4.15864700     -1.27512500     -0.26979000
C           5.05559200     -0.44057500      0.25252800
C          -1.41095300     -0.97482200      0.30315200
O          -0.87285900     -2.07295500      0.42248900
N          -0.75050200      0.18179300      0.06247400
C          -1.35948200      1.43994500     -0.14545000
N          -0.40019800      2.42304300     -0.33869500
N          -2.60768600      1.72906200     -0.21196000
H           2.78749700      0.82133000     -0.16041600
H           0.96030700     -2.20340000      0.00189700
H           2.43783600     -3.09766700     -0.01921900
H           4.49638300     -2.18018400     -0.77928500
H           4.74656400      0.45408000      0.79274500
H           6.12810800     -0.63088200      0.16154300
H          -2.51209000     -0.86397700      0.40273600
H           0.29786500      0.13627600      0.00227600
H          -0.79822800      3.35615300     -0.27901000
H           0.45813500      2.30931500      0.19764300
H          -3.20265100      0.89764800     -0.16370900
