13
b3lypd3vdz=-394.766618788712 
N          -4.66217500      0.71523200      0.12672200
C          -2.77870900     -0.80087500      0.08215900
C          -1.36538800     -1.00789800     -0.04831300
O          -0.73897900     -2.05747200     -0.08133900
N          -0.65689100      0.23327600     -0.14851400
C          -1.26306900      1.43952200     -0.12903300
N          -2.54687200      1.62381000     -0.02450400
C          -3.31120500      0.47410800      0.07563800
H          -5.24636400     -0.02015100      0.50741800
H          -4.90654700      1.65343800      0.42700000
H          -3.40858000     -1.68607700      0.17246400
H           0.35206600      0.15444900     -0.24176100
H          -0.60868700      2.31493800     -0.20773700
