10
b3lypd3vdz=-247.166979828829 
N          -4.71757300      0.60748600      0.11084100
C          -2.75668200     -0.83203600      0.06082100
C          -1.31329700     -0.91634600     -0.07402400
O          -0.66345600     -1.94738500     -0.10951400
C          -3.37272600      0.37699600      0.07077200
H          -5.31740800     -0.16511400      0.38191400
H          -5.03780400      1.51336600      0.43159200
H          -3.31710800     -1.76815800      0.14442500
H          -0.80640100      0.08739300     -0.14312500
H          -2.75854400      1.28169800     -0.00930300
