17
b3lypd3vdz=-397.141159867984 
N           1.88756500     -2.30537400     -0.32644800
N           2.29587400     -0.04642600      0.04441700
C           2.71462100     -1.25758000     -0.12404800
C          -2.82754800     -0.62587900      0.24487500
C          -1.34630200     -0.83068700      0.14789300
O          -0.92058900     -1.97633100     -0.07127500
N          -0.55907500      0.25476400      0.28379800
C          -3.46295900      0.51575700     -0.04053900
H           0.86494200     -2.18558300     -0.22737900
H           2.27241000     -3.23705500     -0.25446900
H           3.08544700      0.59420300      0.13773600
H           3.78707700     -1.52737400     -0.14053500
H          -3.37884600     -1.53399700      0.50275500
H          -0.97479300      1.12021500      0.59971700
H           0.47944900      0.19301300      0.20077800
H          -4.55209300      0.59391900      0.00475100
H          -2.91647900      1.40711400     -0.35992800
