11
b3lypd3vdz=-339.412483890189 
N           4.30698100      0.89296800      0.10826000
C           2.89270100      1.07366800      0.12194800
O           2.44283500      2.19848300      0.19286100
N           2.13018700     -0.09157500      0.03667100
C           2.74527000     -1.24583000     -0.02141500
C           4.15831400     -1.44248000     -0.00955500
C           4.92290800     -0.31092500      0.05433700
H           4.84515000      1.75311200      0.16053200
H           2.09225800     -2.12758000     -0.08476300
H           4.60301100     -2.43448700     -0.05475300
H           6.01498500     -0.30855400      0.06617700
