7
b3lypd3vdz=-207.859648193064 
C           2.91263000      1.04901500      0.10820300
O           2.48814500      2.16822600      0.19140000
N           2.06581800     -0.10180000      0.03416500
C           2.70600000     -1.20274300     -0.02689700
H           4.01640100      0.82553900      0.08371500
H           2.15065300     -2.14739300     -0.08549700
H           3.81455300     -1.26284400     -0.02329000
