19
b3lypd3vdz=-510.438395409261 
C           3.18935800      1.01500100      0.04703700
O           2.93249900      2.19845200      0.08851300
N           2.23094600      0.01232600      0.01762900
C           2.68199200     -1.21524400     -0.00990300
N           1.87413800     -2.26729800     -0.05044700
C          -2.85967000     -0.67866900      0.05589200
C          -1.36723000     -0.78281000      0.04294000
O          -0.86153700     -1.90864100     -0.12817100
N          -0.64504900      0.33525500      0.22130600
C          -3.57555100      0.44728600     -0.01925200
H           4.25514100      0.64597600      0.03108100
H           3.76739900     -1.43159900     -0.00079500
H           0.83712900     -2.13206800     -0.07725500
H           2.26704600     -3.19852100     -0.04607200
H          -3.34672500     -1.65651700      0.09401900
H          -1.10550100      1.22149200      0.37734000
H           0.39037100      0.31599500      0.16182000
H          -4.66828300      0.42625500     -0.02367700
H          -3.11107300      1.43502900     -0.09540400
