20
b3lypd3vdz=-490.537290938115 
N           2.13684500      0.03942000     -0.26881700
C           2.66259000     -1.13813500     -0.13783200
N           1.88848300     -2.26341400     -0.17689800
C           4.12344000     -1.41618100      0.00930200
C           5.05277600     -0.49543200      0.27825800
N          -3.67518400     -1.66707800      0.08163700
C          -2.91871300     -0.64634800      0.06142000
C          -1.41107200     -0.83781200      0.05369600
O          -0.92114500     -1.96535100      0.14217000
N          -0.70236800      0.30422400     -0.05521200
H           2.86282400      0.75585500     -0.33089500
H           0.86750700     -2.14860300     -0.06377800
H           2.27973600     -3.08205700      0.27447200
H           4.42567300     -2.46228300     -0.10727200
H           4.78999200      0.55722300      0.41945700
H           6.10645800     -0.76485200      0.37451300
H          -4.66198300     -1.37228000      0.07375300
H          -3.27510400      0.40443200      0.03849500
H          -1.20011200      1.17814600     -0.17146600
H           0.33795600      0.28142500     -0.16410300
