10
b3lypd3vdz=-247.178833323094 
C          -2.82154000     -0.63219000     -0.00207800
C          -1.34773500     -0.88799600      0.00193100
O          -0.91847500     -2.02351700      0.17421700
N          -0.51759100      0.18211600     -0.18956600
C          -3.44328500      0.54567000     -0.12364900
H          -3.40188500     -1.55085400      0.12156600
H          -0.84420200      1.12394000     -0.35153700
H           0.47935800      0.00453300     -0.19486200
H          -4.53572900      0.60254400     -0.10634500
H          -2.91141700      1.49585300     -0.23997700
