23
b3lypvdz=-405.287601203436 
N          -3.42585300     -0.41680500      0.26855800
C          -2.07954700     -0.19921900     -0.28221200
C          -1.07266900     -0.23266300      0.89308100
C           0.37931200     -0.14443000      0.47869400
C          -2.07531600      1.13849700     -1.02387900
C           1.03836700     -1.26065600     -0.06503800
C           1.10296100      1.05174300      0.60724900
C           2.37247200     -1.18307500     -0.47284700
C           2.43826000      1.13568600      0.19954600
C           3.07752500      0.01842700     -0.34431800
H          -1.77230900     -0.99007300     -1.00200100
H          -1.23126800     -1.17466600      1.44893000
H          -1.32568300      0.58649400      1.58570300
H          -1.07737000      1.37944500     -1.42030500
H          -2.39686700      1.94671900     -0.34565100
H          -2.77510900      1.11529000     -1.87677100
H           0.49633600     -2.20584700     -0.16750100
H           0.61239100      1.92969700      1.03611800
H          -3.47957000     -1.34745700      0.69079500
H          -4.10570400     -0.42409000     -0.49562400
H           2.86591200     -2.06478000     -0.88982100
H           2.98243100      2.07704600      0.31169900
H           4.11924300      0.08280700     -0.66749200
