26
b3lypvdz=-1157.974787338973 
P          -3.30069600      1.99993500     -2.24475500
O          -2.35735100      0.82987400     -1.58060300
O           2.61451700      1.33869000      0.87058500
O          -3.94949400      1.33540600     -3.58540900
O          -4.57873500      1.99474000     -1.23225500
O           1.03607900      3.24682200      0.17998300
O          -2.59876300      3.29537700     -2.49054500
N           1.47150600     -1.67745000     -0.70006600
C          -0.00788200      0.10822600     -1.40560000
C           0.72821600      1.03173600     -0.61235200
C          -1.13791500      0.51147100     -2.31928600
C           1.84434700      0.54973500      0.11250300
C           2.18714700     -0.83150500      0.03263500
C           0.40903100     -1.21750500     -1.39266000
C           3.38776600     -1.34342900      0.77814100
C           0.39418800      2.45887900     -0.52092600
H          -1.36839400     -0.32219700     -2.99941600
H          -0.85331900      1.38405200     -2.92859600
H          -0.12909400     -1.96365200     -1.98695400
H           3.29110200     -1.16235900      1.86255600
H           3.50333600     -2.41904900      0.59210200
H           4.29966500     -0.81328500      0.45641900
H          -0.47236200      2.83561300     -1.10328300
H           2.21824500      2.25251100      0.80877500
H          -4.51890700      0.57947500     -3.36435600
H          -4.49093400      2.70919000     -0.57883600
