17
chgs=0 nmr=1 alpha=61.23 b3lypd3vdz=-342.988169785653 
     N      0.09590000      1.69900000      1.09290000   -0.2292  257.2499
     C     -1.35040000      1.82310000      1.05140000    0.1478  145.3847
     C     -1.91270000      0.47570000      1.51600000    0.1351   27.0119
     O     -1.83470000     -0.51030000      0.76680000   -0.3098  -62.9551
     N     -2.50100000      0.37410000      2.72560000   -0.1483  128.3339
     C     -3.06370000     -0.92600000      3.11590000    0.0709  154.4542
     C     -3.54840000     -0.67920000      4.55730000   -0.0487  171.4314
     H      0.50170000      0.84260000      0.71010000    0.0903   31.1135
     H     -1.61820000      2.64140000      1.72800000   -0.0085   28.7280
     H     -2.29450000     -1.70630000      3.05990000    0.0317   28.2675
     H     -4.39500000     -1.32650000      4.82530000    0.0285   29.8531
     H     -2.72210000     -0.89730000      5.25360000    0.0359   29.5942
     H      0.69480000      2.44590000      1.38170000    0.0743   31.6129
     H     -1.73350000      2.04110000      0.04360000    0.0168   27.9467
     H     -2.69620000      1.10040000      3.38470000    0.0748   27.7889
     H     -3.86060000     -1.26200000      2.43610000    0.0267   28.5048
     H     -3.78740000      0.39440000      4.57090000    0.0117   30.9400
