19
chgs=0 nmr=1 alpha=88.76 b3lypd3vdz=-273.707844811474 
     C      2.08100000      0.19180000      3.00120000   -0.0636   59.8390
     C      2.64120000     -0.80650000      2.18810000   -0.0642   51.2133
     C      6.02880000     -1.42020000     -0.11300000    0.0014   41.7487
     C      6.04520000     -0.70090000      1.09900000   -0.0348   56.4482
     C      6.26560000     -1.40060000      2.28170000    0.0224   65.3935
     C      5.43980000      0.31980000     -1.99600000    0.0361  178.6859
     C      5.83470000     -1.03550000     -1.49250000   -0.1105   49.0098
     H      3.50920000     -0.57500000      1.56880000    0.0421   24.9387
     H      2.49250000      1.21150000      2.97110000    0.0242   25.0305
     H      1.22090000     -0.08240000      3.62970000    0.0266   25.1535
     H      2.23470000     -1.82840000      2.16590000    0.0235   25.0452
     H      5.87840000      0.37770000      1.10230000   -0.0190   24.2333
     H      6.27140000     -0.86200000      3.23210000    0.0172   26.0743
     H      5.58910000      0.39330000     -3.08410000    0.0304   29.7343
     H      6.04570000      1.11050000     -1.53420000    0.0371   29.2347
     H      6.20500000     -2.50590000     -0.09900000   -0.0282   24.7460
     H      6.42710000     -2.48870000      2.28190000    0.0201   25.6441
     H      4.39210000      0.55820000     -1.76030000    0.0477   29.4107
     H      5.93480000     -1.95560000     -2.08700000   -0.0085   25.2372
