9
chgs=0 nmr=1 alpha=34.95 b3lypd3vdz=-117.809696507559 
     C      6.02880000     -1.42020000     -0.11300000   -0.0496   53.3228
     C      5.43980000      0.31980000     -1.99600000    0.0319  176.1071
     C      5.83470000     -1.03550000     -1.49250000   -0.1233   35.8595
     H      5.58910000      0.39330000     -3.08410000    0.0273   29.8121
     H      6.04570000      1.11050000     -1.53420000    0.0361   29.2818
     H      6.20500000     -2.50590000     -0.09900000    0.0167   25.5339
     H      6.04160000     -0.85880000      0.83290000    0.0154   24.8227
     H      4.39210000      0.55820000     -1.76030000    0.0460   29.3297
     H      5.93480000     -1.95560000     -2.08700000   -0.0006   24.3016
