15
chgs=0 nmr=1 alpha=54.24 b3lypd3vdz=-287.596229099403 
     C      2.12680000     -2.09980000      2.16000000   -0.0418   57.0091
     C      1.01760000     -2.42980000      2.95410000   -0.0655   57.6846
     N      0.29000000     -2.47520000     -0.72790000   -0.2033  254.1214
     C      1.51630000     -2.25140000     -1.46470000    0.0491  136.6582
     C      1.94450000     -0.78610000     -1.39400000    0.1582  -11.4733
     O      1.25770000      0.07870000     -0.82990000   -0.2118 -363.8997
     H      2.57640000     -2.86320000      1.52270000    0.0188   25.4342
     H      2.53330000     -1.07790000      2.18220000    0.0346   25.1830
     H      0.57880000     -1.66260000      3.60900000    0.0299   25.2247
     H      0.56610000     -3.43290000      2.95190000    0.0213   25.2747
     H     -0.46940000     -1.80640000     -0.84560000    0.0876   30.6646
     H      2.30700000     -2.84320000     -0.97730000    0.0330   27.9940
     H      0.13210000     -3.33170000     -0.23650000    0.0759   31.6658
     H      1.41200000     -2.60180000     -2.50220000    0.0270   27.2935
     H      2.90130000     -0.55550000     -1.88520000   -0.0130   21.4177
