14
chgs=0 nmr=1 alpha=54.69 b3lypd3vdz=-361.667557171397 
     C      0.90310000      2.70560000      1.48210000    0.1993   37.8314
     O      0.49730000      3.84920000      1.74780000   -0.2954  -83.6707
     N      0.09590000      1.69900000      1.09290000   -0.1413  139.6336
     C     -1.35040000      1.82310000      1.05140000    0.1095  155.8086
     C     -1.88600000      2.12790000     -0.35750000   -0.0613  143.2123
     C     -3.36750000      2.38270000     -0.31390000    0.1696   -6.0372
     O     -4.04740000      2.27800000      0.70320000   -0.2017 -350.8407
     H      0.50170000      0.84260000      0.71010000    0.0838   27.3292
     H     -1.61820000      2.64140000      1.72800000    0.0535   26.8664
     H     -1.37820000      3.00360000     -0.78400000    0.0517   28.9613
     H     -1.69840000      1.28000000     -1.04010000    0.0308   29.2873
     H      1.96370000      2.42910000      1.57540000   -0.0140   23.4739
     H     -1.75410000      0.85570000      1.38500000    0.0264   28.6847
     H     -3.79600000      2.66310000     -1.28740000   -0.0111   21.4308
