7
chgs=0 nmr=1 alpha=25.94 b3lypd3vdz=-153.73045363576 
     C      2.12680000     -2.09980000      2.16000000   -0.0987   95.2931
     C      1.01760000     -2.42980000      2.95410000    0.0647   32.7819
     O      0.45780000     -3.67340000      2.95140000   -0.1828  201.0224
     H      2.57640000     -2.86320000      1.52270000    0.0023   26.9016
     H      0.82970000     -4.18290000      2.20160000    0.1604   27.4310
     H      2.53330000     -1.07790000      2.18220000    0.0240   26.8092
     H      0.57880000     -1.66260000      3.60900000    0.0300   24.1832
