14
chgs=0 nmr=1 alpha=61.29 b3lypd3vdz=-270.320022353771 
     C      4.42820000      3.44170000      0.90960000    0.1850   -6.3770
     O      4.96590000      2.35460000      0.66000000   -0.1902 -467.9276
     C      6.02880000     -1.42020000     -0.11300000   -0.0446   48.8357
     C      6.25690000     -2.82580000     -0.09490000   -0.0423   47.7590
     C      6.04520000     -0.70090000      1.09900000    0.0045   70.5735
     C      6.47650000     -3.53090000      1.09720000    0.0076   79.3302
     H      4.93670000      4.38870000      0.67620000    0.0208   21.2911
     H      3.42440000      3.49910000      1.35580000    0.0222   21.2850
     H      5.87840000      0.37770000      1.10230000    0.0353   24.4982
     H      6.64460000     -4.61050000      1.09690000    0.0174   26.2243
     H      5.88110000     -1.12740000     -1.16300000   -0.0285   24.3993
     H      6.21640000     -3.17810000     -1.13620000   -0.0299   24.6869
     H      6.21940000     -1.25390000      2.03380000    0.0202   23.4869
     H      6.47380000     -2.95250000      2.03290000    0.0225   23.9390
