13
chgs=0 nmr=1 alpha=42.49 b3lypd3vdz=-174.318857285038 
     C      2.12680000     -2.09980000      2.16000000   -0.0379   56.0702
     C      1.01760000     -2.42980000      2.95410000   -0.0680   57.8817
     N      0.29000000     -2.47520000     -0.72790000   -0.2377  259.1182
     C      1.51630000     -2.25140000     -1.46470000    0.0548  162.0968
     H      2.57640000     -2.86320000      1.52270000    0.0271   25.0506
     H      2.53330000     -1.07790000      2.18220000    0.0273   24.8942
     H      0.57880000     -1.66260000      3.60900000    0.0257   25.2211
     H      0.56610000     -3.43290000      2.95190000    0.0231   25.2238
     H     -0.46940000     -1.80640000     -0.84560000    0.0770   31.7891
     H      2.30700000     -2.84320000     -0.97730000    0.0135   28.9029
     H      0.13210000     -3.33170000     -0.23650000    0.0727   31.9764
     H      1.82450000     -1.19670000     -1.41380000    0.0182   28.8873
     H      1.41200000     -2.60180000     -2.50220000    0.0042   28.3084
