17
chgs=0 nmr=1 alpha=61.09 b3lypd3vdz=-342.983199495683 
     C     -5.95950000     -0.75220000      0.59260000    0.0716  164.0418
     N     -2.50100000      0.37410000      2.72560000   -0.2901  244.1258
     C     -3.06370000     -0.92600000      3.11590000    0.1375  126.6617
     C     -4.17810000     -1.39590000      2.16520000    0.0796   24.5613
     O     -4.36040000     -2.59610000      1.96420000   -0.2852  -80.8957
     C     -2.78870000      1.44460000      3.69700000    0.0773  144.7679
     N     -4.93360000     -0.42760000      1.58080000   -0.1494  161.7945
     H     -6.64650000     -1.48990000      1.03030000    0.0392   28.3874
     H     -2.29450000     -1.70630000      3.05990000    0.0251   27.8220
     H     -1.88090000      1.68360000      4.27730000    0.0235   27.6609
     H     -3.13200000      2.35020000      3.17990000    0.0155   27.9865
     H     -4.60560000      0.53540000      1.61300000    0.0764   26.0215
     H     -5.59000000     -1.27100000     -0.30420000    0.0313   28.7796
     H     -6.50330000      0.16910000      0.33670000    0.0174   29.2406
     H     -2.06490000      0.44940000      1.82890000    0.0651   32.3219
     H     -3.40980000     -0.74980000      4.14510000    0.0368   28.2279
     H     -3.57200000      0.99770000      4.32680000    0.0285   28.7265
