15
chgs=0 nmr=1 alpha=55.16 b3lypd3vdz=-378.875958581881 
     N      3.11920000     -0.50300000     -1.99710000   -0.0631  164.2265
     C      1.94450000     -0.78610000     -1.39400000    0.1849   35.7955
     O      1.25770000      0.07870000     -0.82990000   -0.2681  -99.8062
     N      0.09590000      1.69900000      1.09290000   -0.2270  259.3129
     C     -1.35040000      1.82310000      1.05140000    0.1183  142.6182
     C     -1.91270000      0.47570000      1.51600000    0.1414   -8.0197
     O     -1.83470000     -0.51030000      0.76680000   -0.2278 -364.1790
     H      3.66780000     -1.30950000     -2.29190000    0.0951   27.8201
     H      3.69420000      0.28340000     -1.77130000    0.0993   27.6287
     H      1.63630000     -1.84080000     -1.44490000    0.0068   23.3245
     H      0.50170000      0.84260000      0.71010000    0.0921   28.6535
     H     -1.61820000      2.64140000      1.72800000   -0.0057   28.2376
     H      0.69480000      2.44590000      1.38170000    0.0656   32.0935
     H     -1.73350000      2.04110000      0.04360000    0.0090   27.9986
     H     -2.39240000      0.39280000      2.50240000   -0.0208   21.1161
