16
chgs=0 nmr=1 alpha=58.06 b3lypd3vdz=-362.869958348023 
     C     -3.54700000     -2.02120000     -2.12210000   -0.0020  169.1004
     C     -2.54580000     -3.08320000     -1.64360000    0.0285   30.1912
     O     -1.85310000     -3.71080000     -2.46200000   -0.2911  -73.8919
     N     -2.40610000     -3.22870000     -0.31420000   -0.0537  160.4062
     C     -3.06370000     -0.92600000      3.11590000   -0.0369  159.2010
     C     -4.17810000     -1.39590000      2.16520000    0.1261  -13.6364
     O     -4.36040000     -2.59610000      1.96420000   -0.2151 -378.8948
     H     -4.37040000     -2.54620000     -2.62940000    0.0532   29.6019
     H     -3.05840000     -2.77050000      0.31520000    0.0894   27.3530
     H     -3.99630000     -1.45650000     -1.29190000   -0.0023   30.4602
     H     -3.04350000     -1.36160000     -2.84420000    0.0542   29.6212
     H     -1.68320000     -3.77990000      0.10240000    0.0887   27.8886
     H     -2.29450000     -1.70630000      3.05990000    0.0466   29.4339
     H     -2.64250000      0.04720000      2.82370000    0.0380   29.0648
     H     -3.40980000     -0.74980000      4.14510000    0.0654   29.0775
     H     -4.78910000     -0.61280000      1.69260000    0.0110   20.8489
