16
chgs=0 nmr=1 alpha=59.54 b3lypd3vdz=-362.848623847038 
     C      1.94450000     -0.78610000     -1.39400000    0.1990   -9.8191
     O      1.25770000      0.07870000     -0.82990000   -0.2110 -429.4216
     C      0.90310000      2.70560000      1.48210000    0.1959   38.0884
     O      0.49730000      3.84920000      1.74780000   -0.3098  -70.7678
     N      0.09590000      1.69900000      1.09290000   -0.1331  129.5521
     C     -1.35040000      1.82310000      1.05140000    0.0653  156.1479
     C     -1.88600000      2.12790000     -0.35750000   -0.0266  173.2936
     H      1.63630000     -1.84080000     -1.44490000    0.0314   21.3465
     H      2.90130000     -0.55550000     -1.88520000    0.0354   21.3313
     H      0.50170000      0.84260000      0.71010000    0.0820   23.8735
     H     -1.61820000      2.64140000      1.72800000    0.0347   27.1817
     H     -1.37820000      3.00360000     -0.78400000    0.0342   30.1699
     H     -1.69840000      1.28000000     -1.04010000    0.0097   30.3097
     H      1.96370000      2.42910000      1.57540000   -0.0282   23.3882
     H     -1.75410000      0.85570000      1.38500000    0.0079   28.7942
     H     -2.96960000      2.31430000     -0.32560000    0.0132   30.4912
