5
chgs=0 nmr=1 alpha=13.43 b3lypd3vdz=-40.481168912923 
     C     -3.54840000     -0.67920000      4.55730000   -0.1257  196.6021
     H     -4.39500000     -1.32650000      4.82530000    0.0353   30.9757
     H     -2.72210000     -0.89730000      5.25360000    0.0308   31.0206
     H     -3.20230000     -0.85540000      3.52810000    0.0286   31.0610
     H     -3.78740000      0.39440000      4.57090000    0.0309   31.0028
