15
chgs=0 nmr=1 alpha=49.26 b3lypd3vdz=-324.766323826221 
     C     -5.95950000     -0.75220000      0.59260000    0.0695  155.4637
     C     -6.72760000      0.54920000      0.23110000   -0.0569  175.6820
     N     -4.93360000     -0.42760000      1.58080000   -0.2370  244.5612
     C     -3.36750000      2.38270000     -0.31390000    0.2483   33.6117
     O     -4.04740000      2.27800000      0.70320000   -0.2488 -106.0075
     O     -3.88670000      2.72240000     -1.49350000   -0.1549  124.7868
     H     -6.64650000     -1.48990000      1.03030000   -0.0035   28.6022
     H     -7.60780000      0.64120000      0.88650000    0.0243   29.9534
     H     -6.07680000      1.40620000      0.44970000    0.0150   29.8230
     H     -4.60560000      0.53540000      1.61300000    0.0825   30.6748
     H     -5.59000000     -1.27100000     -0.30420000   -0.0214   28.6650
     H     -7.04570000      0.63100000     -0.81870000   -0.0010   30.7119
     H     -4.37810000     -1.13950000      2.01050000    0.0612   32.3066
     H     -4.86380000      2.83350000     -1.40270000    0.1791   24.8637
     H     -2.28390000      2.19630000     -0.34580000    0.0438   23.5428
