15
chgs=0 nmr=1 alpha=46.0 b3lypd3vdz=-270.623954200911 
     C     -2.83870000     -1.09330000     -3.13790000    0.0993  143.8924
     O     -1.71160000     -0.46870000     -2.50910000   -0.3239  336.6515
     O      0.17140000     -2.23790000     -3.52280000   -0.2891  275.2540
     C      1.41510000     -4.27320000     -3.04150000   -0.0649  170.3477
     C      1.36760000     -2.75080000     -2.94330000    0.1258  133.3278
     H     -2.49380000     -1.73900000     -3.96220000   -0.0039   28.3571
     H     -0.90150000     -0.86780000     -2.89010000    0.1384   28.6750
     H     -3.34220000     -1.75290000     -2.41580000    0.0053   28.1605
     H     -3.51190000     -0.31800000     -3.53260000    0.0234   27.9791
     H     -0.55590000     -2.85860000     -3.27480000    0.1602   31.5919
     H      1.34630000     -4.57280000     -4.09850000    0.0343   29.9490
     H      2.34810000     -4.66960000     -2.61180000    0.0283   30.0981
     H      0.56830000     -4.72120000     -2.50170000    0.0220   30.6150
     H      2.19480000     -2.32230000     -3.53340000    0.0280   27.7436
     H      1.47190000     -2.40040000     -1.90580000    0.0167   27.6341
