12
chgs=0 nmr=1 alpha=43.58 b3lypd3vdz=-248.372949796487 
     C     -1.91270000      0.47570000      1.51600000    0.2006   37.5374
     O     -1.83470000     -0.51030000      0.76680000   -0.3036 -122.7706
     N     -2.50100000      0.37410000      2.72560000   -0.2475  151.6576
     C     -3.06370000     -0.92600000      3.11590000    0.0813  147.0274
     C     -2.78870000      1.44460000      3.69700000    0.0715  150.2765
     H     -2.29450000     -1.70630000      3.05990000    0.0427   27.9622
     H     -1.88090000      1.68360000      4.27730000    0.0405   27.8804
     H     -3.13200000      2.35020000      3.17990000    0.0393   28.0213
     H     -1.50900000      1.44310000      1.18240000   -0.0177   23.0742
     H     -3.86060000     -1.26200000      2.43610000    0.0391   27.9589
     H     -3.40980000     -0.74980000      4.14510000    0.0152   29.0658
     H     -3.57200000      0.99770000      4.32680000    0.0386   28.3693
