12
chgs=0 nmr=1 alpha=42.56 b3lypd3vdz=-339.639084305077 
     C     -2.54580000     -3.08320000     -1.64360000    0.1561   38.7068
     O     -1.85310000     -3.71080000     -2.46200000   -0.2964 -100.0880
     N     -2.40610000     -3.22870000     -0.31420000   -0.0636  158.3390
     C     -4.17810000     -1.39590000      2.16520000    0.1735   36.0930
     O     -4.36040000     -2.59610000      1.96420000   -0.2830  -89.0764
     N     -4.93360000     -0.42760000      1.58080000   -0.0656  159.9206
     H     -3.05840000     -2.77050000      0.31520000    0.0939   26.8544
     H     -3.26280000     -2.32260000     -1.98630000   -0.0247   23.4201
     H     -1.68320000     -3.77990000      0.10240000    0.0916   27.5586
     H     -4.60560000      0.53540000      1.61300000    0.1060   27.1265
     H     -3.38120000     -1.05990000      2.84500000    0.0083   23.1435
     H     -5.63580000     -0.64980000      0.90440000    0.1039   27.2249
