16
chgs=0 nmr=1 alpha=63.76 b3lypd3vdz=-325.749674288694 
     C      2.37390000      2.32220000      1.61150000    0.0326  144.2236
     C      0.90310000      2.70560000      1.48210000    0.0616   26.3753
     O      0.49730000      3.84920000      1.74780000   -0.2812  -77.9264
     C      2.64600000      1.59200000      2.95990000    0.0490  159.9855
     C      2.08100000      0.19180000      3.00120000   -0.0901   35.7499
     C      2.64120000     -0.80650000      2.18810000   -0.0198   62.9951
     N      0.09590000      1.69900000      1.09290000   -0.0468  164.9928
     H      2.62670000      1.62560000      0.80080000    0.0028   29.7459
     H      3.74190000      1.55800000      3.06080000    0.0252   28.8299
     H      2.25480000      2.20950000      3.78430000    0.0240   29.2508
     H      3.50920000     -0.57500000      1.56880000    0.0168   25.4703
     H      0.50170000      0.84260000      0.71010000    0.0954   27.1506
     H      2.99190000      3.22490000      1.49700000    0.0230   29.1160
     H      1.22090000     -0.08240000      3.62970000   -0.0039   24.1220
     H      2.23470000     -1.82840000      2.16590000    0.0234   25.3775
     H     -0.90000000      1.78450000      1.06430000    0.0880   27.8571
