15
chgs=0 nmr=1 alpha=54.63 b3lypd3vdz=-287.683342377385 
     C     -5.44150000     -1.47950000     -0.66470000    0.2061   38.7225
     O     -6.22450000     -2.15670000     -1.31890000   -0.2776  -88.5523
     N     -4.14050000     -1.27530000     -1.02540000   -0.1474  139.9631
     C     -3.54700000     -2.02120000     -2.12210000    0.0862  153.0279
     C     -2.83870000     -1.09330000     -3.13790000   -0.0511  163.7086
     C     -3.77040000     -0.02030000     -3.68410000   -0.0091  178.6260
     H     -3.49920000     -0.77170000     -0.41380000    0.0838   27.4598
     H     -4.37040000     -2.54620000     -2.62940000    0.0430   26.9707
     H     -2.49380000     -1.73900000     -3.96220000    0.0109   29.9314
     H     -3.25600000      0.55400000     -4.46900000    0.0134   30.4499
     H     -4.68470000     -0.46680000     -4.10730000    0.0298   30.5883
     H     -4.05240000      0.68150000     -2.88650000    0.0138   30.1642
     H     -5.81100000     -0.96070000      0.23210000   -0.0143   23.1089
     H     -2.83000000     -2.78180000     -1.77940000    0.0127   28.8898
     H     -1.97400000     -0.61410000     -2.65550000    0.0000   30.1681
