15
chgs=0 nmr=1 alpha=55.04 b3lypd3vdz=-287.677357011444 
     C     -5.95950000     -0.75220000      0.59260000    0.1213  149.8480
     C     -6.72760000      0.54920000      0.23110000   -0.0764  162.7703
     C     -7.17340000      0.66390000     -1.24020000   -0.0226  176.4172
     C     -4.17810000     -1.39590000      2.16520000    0.1993   38.0034
     O     -4.36040000     -2.59610000      1.96420000   -0.2838 -113.3418
     N     -4.93360000     -0.42760000      1.58080000   -0.1583  130.3728
     H     -6.64650000     -1.48990000      1.03030000    0.0342   27.8967
     H     -7.60780000      0.64120000      0.88650000    0.0236   29.3060
     H     -6.07680000      1.40620000      0.44970000    0.0018   30.6966
     H     -6.30940000      0.50900000     -1.90500000    0.0241   30.4364
     H     -7.93760000     -0.07880000     -1.49670000    0.0281   30.4222
     H     -4.60560000      0.53540000      1.61300000    0.0866   27.8688
     H     -5.59000000     -1.27100000     -0.30420000    0.0204   28.7828
     H     -7.57180000      1.66990000     -1.43800000    0.0202   30.2789
     H     -3.38120000     -1.05990000      2.84500000   -0.0186   23.3254
