19
chgs=0 nmr=1 alpha=59.81 b3lypd3vdz=-385.115557604396 
     C     -1.35040000      1.82310000      1.05140000   -0.0606  182.2414
     C     -1.88600000      2.12790000     -0.35750000   -0.1020  183.9715
     C     -2.83870000     -1.09330000     -3.13790000    0.0990  142.2020
     O     -1.71160000     -0.46870000     -2.50910000   -0.2683  331.2850
     C      1.57950000      4.49420000     -1.45790000    0.2298   37.9153
     O      0.32590000      4.42390000     -0.96490000   -0.1576  127.3821
     O      2.47210000      5.11220000     -0.91980000   -0.2375 -113.5501
     H     -1.61820000      2.64140000      1.72800000    0.0068   30.7648
     H     -1.37820000      3.00360000     -0.78400000    0.0145   29.8658
     H     -1.69840000      1.28000000     -1.04010000    0.0340   29.4492
     H     -0.25490000      1.72910000      1.08280000    0.0042   30.8741
     H     -1.75410000      0.85570000      1.38500000    0.0192   30.3791
     H     -2.96960000      2.31430000     -0.32560000    0.0056   30.9395
     H     -2.49380000     -1.73900000     -3.96220000    0.0116   27.8646
     H     -0.90150000     -0.86780000     -2.89010000    0.1453   31.5501
     H     -3.34220000     -1.75290000     -2.41580000    0.0234   27.7203
     H     -3.51190000     -0.31800000     -3.53260000    0.0341   27.7654
     H      0.33700000      4.72390000     -0.02600000    0.1718   25.7517
     H      1.70330000      3.85730000     -2.34620000    0.0269   23.7220
