15
chgs=0 nmr=1 alpha=53.7 b3lypd3vdz=-378.878998638319 
     C     -2.54580000     -3.08320000     -1.64360000    0.1565   38.7815
     O     -1.85310000     -3.71080000     -2.46200000   -0.2935 -102.8283
     N     -2.40610000     -3.22870000     -0.31420000   -0.0687  159.7620
     N     -2.50100000      0.37410000      2.72560000   -0.2108  259.5359
     C     -3.06370000     -0.92600000      3.11590000    0.0612  134.8661
     C     -4.17810000     -1.39590000      2.16520000    0.1512  -24.6807
     O     -4.36040000     -2.59610000      1.96420000   -0.2198 -367.6613
     H     -3.05840000     -2.77050000      0.31520000    0.0943   27.5072
     H     -3.26280000     -2.32260000     -1.98630000   -0.0164   23.4523
     H     -1.68320000     -3.77990000      0.10240000    0.0924   27.5856
     H     -2.29450000     -1.70630000      3.05990000    0.0288   28.0690
     H     -2.06490000      0.44940000      1.82890000    0.0897   30.4773
     H     -2.69620000      1.10040000      3.38470000    0.0903   30.4667
     H     -3.40980000     -0.74980000      4.14510000    0.0518   27.8899
     H     -4.78910000     -0.61280000      1.69260000   -0.0069   20.9655
