19
chgs=0 nmr=1 alpha=73.62 b3lypd3vdz=-310.817620517087 
     C      2.64120000     -0.80650000      2.18810000   -0.0675   56.9104
     C      2.12680000     -2.09980000      2.16000000   -0.0630   61.3004
     C      6.02880000     -1.42020000     -0.11300000   -0.0877   59.3967
     C      6.04520000     -0.70090000      1.09900000   -0.0529   56.8331
     C      5.13490000      4.75780000      0.58520000   -0.0413  163.1046
     C      4.42820000      3.44170000      0.90960000    0.1278  -12.8418
     O      4.96590000      2.35460000      0.66000000   -0.2028 -391.0619
     H      3.50920000     -0.57500000      1.56880000    0.0467   24.7602
     H      2.57640000     -2.86320000      1.52270000    0.0239   25.3512
     H      2.20230000     -0.02440000      2.82510000    0.0151   25.1842
     H      1.25750000     -2.35840000      2.78240000    0.0204   25.3744
     H      5.87840000      0.37770000      1.10230000    0.0559   23.6126
     H      5.88110000     -1.12740000     -1.16300000    0.0239   24.8432
     H      6.20500000     -2.50590000     -0.09900000    0.0162   25.5235
     H      6.21940000     -1.25390000      2.03380000    0.0275   24.7453
     H      5.99190000      4.83530000      1.27870000    0.0639   29.4626
     H      4.47090000      5.61460000      0.77610000    0.0261   29.2404
     H      5.50070000      4.80480000     -0.45110000    0.0625   29.3039
     H      3.42440000      3.49910000      1.35580000    0.0054   20.9906
