10
chgs=0 nmr=1 alpha=44.73 b3lypd3vdz=-155.876983043914 
     C      2.08100000      0.19180000      3.00120000   -0.0271   53.7328
     C      2.64120000     -0.80650000      2.18810000    0.0006   68.2587
     C      0.98480000     -0.15760000      3.80220000   -0.0187   55.8843
     C      0.45840000     -1.45210000      3.78880000    0.0014   72.4263
     H      3.50920000     -0.57500000      1.56880000    0.0147   26.1136
     H      0.53070000      0.59650000      4.45220000   -0.0198   25.1088
     H     -0.38490000     -1.72720000      4.42550000    0.0167   26.1194
     H      2.49250000      1.21150000      2.97110000   -0.0134   24.7210
     H      2.23470000     -1.82840000      2.16590000    0.0247   23.5252
     H      0.89720000     -2.21930000      3.13390000    0.0210   23.8928
