14
chgs=0 nmr=1 alpha=51.53 b3lypd3vdz=-307.48458487064 
     C      1.51630000     -2.25140000     -1.46470000   -0.0423  157.7311
     C      1.94450000     -0.78610000     -1.39400000    0.1283   -8.1992
     O      1.25770000      0.07870000     -0.82990000   -0.2111 -397.0700
     C      2.12680000     -2.09980000      2.16000000   -0.1023   95.0802
     C      1.01760000     -2.42980000      2.95410000    0.0662   32.6616
     O      0.45780000     -3.67340000      2.95140000   -0.1826  200.6605
     H      2.30700000     -2.84320000     -0.97730000    0.0393   29.5011
     H      0.58470000     -2.42140000     -0.90500000    0.0442   29.3749
     H      1.41200000     -2.60180000     -2.50220000    0.0450   29.3116
     H      2.90130000     -0.55550000     -1.88520000   -0.0064   21.2846
     H      2.57640000     -2.86320000      1.52270000   -0.0019   27.1110
     H      0.82970000     -4.18290000      2.20160000    0.1586   27.5386
     H      2.53330000     -1.07790000      2.18220000    0.0310   26.9849
     H      0.57880000     -1.66260000      3.60900000    0.0341   24.2037
