18
chgs=0 nmr=1 alpha=70.79 b3lypd3vdz=-235.64677220546 
     C      1.51630000     -2.25140000     -1.46470000   -0.0705  178.6922
     C      1.36760000     -2.75080000     -2.94330000   -0.0644  181.2829
     C      2.08100000      0.19180000      3.00120000   -0.0263   54.0465
     C      2.64120000     -0.80650000      2.18810000   -0.0258   55.8672
     C      0.98480000     -0.15760000      3.80220000    0.0033   70.1998
     C      2.12680000     -2.09980000      2.16000000    0.0058   72.0049
     H      2.30700000     -2.84320000     -0.97730000    0.0206   30.4306
     H      2.19480000     -2.32230000     -3.53340000    0.0184   30.3895
     H      0.58470000     -2.42140000     -0.90500000    0.0243   30.4128
     H      1.82450000     -1.19670000     -1.41380000    0.0236   30.4506
     H      0.44400000     -2.35480000     -3.39070000    0.0204   30.4548
     H      1.40180000     -3.84800000     -3.01410000    0.0233   30.4308
     H      3.50920000     -0.57500000      1.56880000   -0.0222   25.2406
     H      0.53070000      0.59650000      4.45220000    0.0168   26.1366
     H      2.57640000     -2.86320000      1.52270000    0.0208   26.1822
     H      2.49250000      1.21150000      2.97110000   -0.0142   24.7998
     H      0.57050000     -1.17650000      3.79170000    0.0263   23.5434
     H      1.25750000     -2.35840000      2.78240000    0.0196   23.9519
