17
chgs=0 nmr=1 alpha=70.72 b3lypd3vdz=-309.631445834029 
     C      3.96600000      0.65520000     -1.66450000   -0.0572  158.0616
     C      3.56570000      1.99100000     -2.32950000    0.1238   -3.8956
     O      4.40780000      2.72380000     -2.83520000   -0.2010 -373.2091
     C      2.08100000      0.19180000      3.00120000   -0.0301   54.4228
     C      2.64120000     -0.80650000      2.18810000   -0.0303   56.0485
     C      0.98480000     -0.15760000      3.80220000    0.0049   69.4091
     C      2.12680000     -2.09980000      2.16000000    0.0046   72.7359
     H      3.89510000      0.83610000     -0.58100000    0.0547   29.7391
     H      3.33350000     -0.20980000     -1.91290000    0.0421   29.1530
     H      5.01370000      0.41680000     -1.90020000    0.0423   29.4783
     H      2.49780000      2.24810000     -2.27050000   -0.0045   21.3626
     H      3.50920000     -0.57500000      1.56880000   -0.0196   25.1910
     H      0.53070000      0.59650000      4.45220000    0.0190   26.0644
     H      2.57640000     -2.86320000      1.52270000    0.0161   26.1326
     H      2.49250000      1.21150000      2.97110000   -0.0142   24.7808
     H      0.57050000     -1.17650000      3.79170000    0.0276   23.4805
     H      1.25750000     -2.35840000      2.78240000    0.0217   23.9220
