16
chgs=0 nmr=1 alpha=72.1 b3lypd3vdz=-325.69341982098 
     C      5.96040000     -2.19040000     -2.23880000    0.0205   54.4853
     C      6.02880000     -1.42020000     -0.11300000   -0.0283   29.3386
     C      6.04520000     -0.70090000      1.09900000   -0.0134   70.5090
     C      5.83470000     -1.03550000     -1.49250000   -0.0439   51.6259
     C      4.42820000      3.44170000      0.90960000    0.1785   36.4215
     O      4.96590000      2.35460000      0.66000000   -0.2662  -97.5406
     N      3.18890000      3.51260000      1.46050000   -0.0704  161.8748
     H      5.91250000     -2.32370000     -3.31810000   -0.0005   25.7352
     H      5.87840000      0.37770000      1.10230000    0.0331   24.7055
     H      6.15540000     -3.04570000     -1.57510000    0.0118   24.8327
     H      6.20500000     -2.50590000     -0.09900000   -0.0268   24.2342
     H      6.21940000     -1.25390000      2.03380000    0.0073   25.9165
     H      5.54490000     -0.04080000     -1.86200000   -0.0054   24.1378
     H      2.70330000      4.40390000      1.49810000    0.0976   27.3358
     H      4.93670000      4.38870000      0.67620000    0.0032   23.1738
     H      2.62700000      2.69190000      1.56460000    0.1028   27.3651
