16
chgs=0 nmr=1 alpha=70.49 b3lypd3vdz=-234.405492030318 
     C      6.02880000     -1.42020000     -0.11300000   -0.0787   56.6788
     C      6.04520000     -0.70090000      1.09900000   -0.0399   60.2952
     C      2.08100000      0.19180000      3.00120000   -0.0324   54.8849
     C      2.64120000     -0.80650000      2.18810000   -0.0043   64.9501
     C      0.98480000     -0.15760000      3.80220000   -0.0179   55.8445
     C      0.45840000     -1.45210000      3.78880000    0.0001   73.2415
     H      5.87840000      0.37770000      1.10230000    0.0388   25.1375
     H      5.88110000     -1.12740000     -1.16300000    0.0312   24.8589
     H      6.20500000     -2.50590000     -0.09900000    0.0263   25.4635
     H      6.21940000     -1.25390000      2.03380000    0.0409   24.8290
     H      3.50920000     -0.57500000      1.56880000    0.0219   25.7228
     H      0.53070000      0.59650000      4.45220000   -0.0217   25.1588
     H     -0.38490000     -1.72720000      4.42550000    0.0145   26.1950
     H      2.49250000      1.21150000      2.97110000   -0.0184   24.8278
     H      2.23470000     -1.82840000      2.16590000    0.0196   23.5598
     H      0.89720000     -2.21930000      3.13390000    0.0200   23.9449
