15
chgs=0 nmr=1 alpha=50.93 b3lypd3vdz=-233.52184399703 
     C      2.64600000      1.59200000      2.95990000   -0.0660  181.1941
     C      2.37390000      2.32220000      1.61150000   -0.0644  180.3920
     C      1.51630000     -2.25140000     -1.46470000   -0.0389  159.0632
     C      1.94450000     -0.78610000     -1.39400000    0.1275   -9.5550
     O      1.25770000      0.07870000     -0.82990000   -0.2066 -385.8210
     H      3.74190000      1.55800000      3.06080000    0.0141   30.4724
     H      2.25480000      2.20950000      3.78430000    0.0175   30.3855
     H      2.62670000      1.62560000      0.80080000    0.0248   30.1842
     H      2.23450000      0.57230000      2.99000000    0.0229   30.5577
     H      2.99190000      3.22490000      1.49700000    0.0114   30.6201
     H      1.31330000      2.59870000      1.51820000    0.0215   30.3211
     H      2.30700000     -2.84320000     -0.97730000    0.0450   29.4602
     H      0.58470000     -2.42140000     -0.90500000    0.0446   29.3473
     H      1.41200000     -2.60180000     -2.50220000    0.0492   29.2264
     H      2.90130000     -0.55550000     -1.88520000   -0.0025   21.2770
