16
chgs=0 nmr=1 alpha=55.13 b3lypd3vdz=-213.61089561183 
     C      2.12680000     -2.09980000      2.16000000   -0.0377   55.8254
     C      1.01760000     -2.42980000      2.95410000   -0.0689   57.9676
     N      0.29000000     -2.47520000     -0.72790000   -0.2058  238.0942
     C      1.51630000     -2.25140000     -1.46470000    0.0377  150.6978
     C      1.36760000     -2.75080000     -2.94330000   -0.0101  165.7480
     H      2.57640000     -2.86320000      1.52270000    0.0278   25.0602
     H      2.53330000     -1.07790000      2.18220000    0.0275   24.8879
     H      0.57880000     -1.66260000      3.60900000    0.0259   25.2144
     H      0.56610000     -3.43290000      2.95190000    0.0231   25.2123
     H     -0.46940000     -1.80640000     -0.84560000    0.0763   31.1280
     H      2.30700000     -2.84320000     -0.97730000    0.0116   28.7264
     H      2.19480000     -2.32230000     -3.53340000   -0.0072   30.4086
     H      0.13210000     -3.33170000     -0.23650000    0.0711   31.1457
     H      1.82450000     -1.19670000     -1.41380000    0.0105   28.7321
     H      0.44400000     -2.35480000     -3.39070000    0.0058   30.6687
     H      1.40180000     -3.84800000     -3.01410000    0.0125   30.2412
