13
chgs=0 nmr=1 alpha=43.72 b3lypd3vdz=-269.418329557749 
     O      0.17140000     -2.23790000     -3.52280000   -0.3304  317.3697
     C      1.36760000     -2.75080000     -2.94330000    0.1044  142.7845
     C     -3.54700000     -2.02120000     -2.12210000   -0.0407  160.5083
     C     -2.54580000     -3.08320000     -1.64360000    0.1448  -19.3881
     O     -1.85310000     -3.71080000     -2.46200000   -0.2438 -354.9030
     H     -0.55590000     -2.85860000     -3.27480000    0.1551   30.0505
     H      2.19480000     -2.32230000     -3.53340000    0.0189   28.0105
     H      1.47190000     -2.40040000     -1.90580000   -0.0039   28.1155
     H      1.40180000     -3.84800000     -3.01410000    0.0097   27.9037
     H     -4.37040000     -2.54620000     -2.62940000    0.0641   29.5535
     H     -3.99630000     -1.45650000     -1.29190000    0.0314   29.0969
     H     -3.04350000     -1.36160000     -2.84420000    0.0732   29.2156
     H     -2.43150000     -3.20220000     -0.55600000    0.0174   20.8177
