5
chgs=0 nmr=1 alpha=13.46 b3lypd3vdz=-40.481884066189 
     C      5.13490000      4.75780000      0.58520000   -0.1275  196.1969
     H      5.99190000      4.83530000      1.27870000    0.0288   30.9764
     H      4.47090000      5.61460000      0.77610000    0.0315   31.0222
     H      5.50070000      4.80480000     -0.45110000    0.0341   30.9773
     H      4.62640000      3.81080000      0.81860000    0.0332   30.9830
