15
chgs=0 nmr=1 alpha=54.55 b3lypd3vdz=-287.648612338263 
     C      0.98480000     -0.15760000      3.80220000   -0.0623   59.7515
     C      0.45840000     -1.45210000      3.78880000   -0.0607   57.2110
     C     -3.06370000     -0.92600000      3.11590000   -0.0206  166.3376
     C     -4.17810000     -1.39590000      2.16520000    0.0446   30.4318
     O     -4.36040000     -2.59610000      1.96420000   -0.2691  -89.8067
     N     -4.93360000     -0.42760000      1.58080000   -0.0646  168.1133
     H      0.53070000      0.59650000      4.45220000    0.0265   25.3799
     H     -0.38490000     -1.72720000      4.42550000    0.0399   25.1947
     H      1.84490000      0.11660000      3.17370000    0.0317   25.1577
     H      0.89720000     -2.21930000      3.13390000    0.0327   25.1231
     H     -2.29450000     -1.70630000      3.05990000    0.0561   29.6201
     H     -4.60560000      0.53540000      1.61300000    0.0905   27.4323
     H     -2.64250000      0.04720000      2.82370000    0.0128   30.0990
     H     -3.40980000     -0.74980000      4.14510000    0.0495   29.2529
     H     -5.63580000     -0.64980000      0.90440000    0.0929   27.9049
