5
chgs=0 nmr=1 alpha=13.44 b3lypd3vdz=-40.481906334713 
     C      1.36760000     -2.75080000     -2.94330000   -0.1267  196.3940
     H      2.19480000     -2.32230000     -3.53340000    0.0281   31.0399
     H      1.47190000     -2.40040000     -1.90580000    0.0332   31.0039
     H      0.44400000     -2.35480000     -3.39070000    0.0308   31.0395
     H      1.40180000     -3.84800000     -3.01410000    0.0346   30.9798
