14
chgs=0 nmr=1 alpha=48.77 b3lypd3vdz=-303.716510246361 
     N      2.23970000      2.31020000     -2.25620000   -0.0656  169.3428
     N      3.11920000     -0.50300000     -1.99710000   -0.1874  238.6271
     C      3.96600000      0.65520000     -1.66450000   -0.0653  140.0420
     C      3.56570000      1.99100000     -2.32950000    0.1469   25.0699
     O      4.40780000      2.72380000     -2.83520000   -0.2680  -57.3970
     C      5.43980000      0.31980000     -1.99600000    0.0365  169.5387
     H      1.62560000      1.68770000     -1.72520000    0.0861   27.0663
     H      3.66780000     -1.30950000     -2.29190000    0.0788   31.3495
     H      3.89510000      0.83610000     -0.58100000    0.0078   28.0741
     H      5.58910000      0.39330000     -3.08410000    0.0341   29.6893
     H      6.04570000      1.11050000     -1.53420000    0.0319   29.8127
     H      1.90410000      3.20400000     -2.55380000    0.0915   27.6211
     H      2.24940000     -0.71260000     -1.55050000    0.0660   31.3403
     H      5.72960000     -0.67490000     -1.62650000    0.0067   30.8808
