10
chgs=0 nmr=1 alpha=30.25 b3lypd3vdz=-230.104165068523 
     C     -1.91270000      0.47570000      1.51600000    0.1737   -4.9967
     O     -1.83470000     -0.51030000      0.76680000   -0.2016 -509.3332
     C     -2.83870000     -1.09330000     -3.13790000    0.1017  141.9821
     O     -1.71160000     -0.46870000     -2.50910000   -0.2920  329.7858
     H     -1.50900000      1.44310000      1.18240000    0.0164   21.2170
     H     -2.39240000      0.39280000      2.50240000    0.0120   21.1507
     H     -2.49380000     -1.73900000     -3.96220000    0.0033   27.9097
     H     -0.90150000     -0.86780000     -2.89010000    0.1417   31.6264
     H     -3.34220000     -1.75290000     -2.41580000    0.0225   27.6733
     H     -3.51190000     -0.31800000     -3.53260000    0.0223   27.9190
