12
chgs=0 nmr=1 alpha=42.51 b3lypd3vdz=-248.352576189416 
     C     -5.95950000     -0.75220000      0.59260000   -0.0201  131.4612
     C     -5.44150000     -1.47950000     -0.66470000    0.1790  -21.1870
     O     -6.22450000     -2.15670000     -1.31890000   -0.2107 -354.7887
     C     -6.72760000      0.54920000      0.23110000    0.0158  168.6397
     N     -4.93360000     -0.42760000      1.58080000   -0.1956  241.0636
     H     -6.64650000     -1.48990000      1.03030000    0.0194   28.2274
     H     -7.60780000      0.64120000      0.88650000    0.0402   29.2875
     H     -6.07680000      1.40620000      0.44970000    0.0132   31.1695
     H     -4.60560000      0.53540000      1.61300000    0.0793   31.4065
     H     -4.39340000     -1.31500000     -0.95530000   -0.0303   21.1024
     H     -7.04570000      0.63100000     -0.81870000    0.0323   30.1482
     H     -4.37810000     -1.13950000      2.01050000    0.0776   30.8483
