15
b3lypd3vdz=-378.879803289953 
     C      0.07660000     -3.63300000     -0.06370000
     O      0.98870000     -4.40750000      0.25670000
     N      0.29000000     -2.47520000     -0.72790000
     N      0.09590000      1.69900000      1.09290000
     C     -1.35040000      1.82310000      1.05140000
     C     -1.91270000      0.47570000      1.51600000
     O     -1.83470000     -0.51030000      0.76680000
     H     -0.46940000     -1.80640000     -0.84560000
     H     -0.95650000     -3.91430000      0.18850000
     H      1.13690000     -2.32060000     -1.23670000
     H      0.50170000      0.84260000      0.71010000
     H     -1.61820000      2.64140000      1.72800000
     H      0.69480000      2.44590000      1.38170000
     H     -1.73350000      2.04110000      0.04360000
     H     -2.39240000      0.39280000      2.50240000
