7
chgs=0 nmr=1 alpha=24.91 b3lypd3vdz=-153.750031779203 
     C     -3.54700000     -2.02120000     -2.12210000   -0.0394  162.0741
     C     -2.54580000     -3.08320000     -1.64360000    0.1183  -11.8638
     O     -1.85310000     -3.71080000     -2.46200000   -0.2189 -410.7683
     H     -4.37040000     -2.54620000     -2.62940000    0.0584   29.5862
     H     -3.99630000     -1.45650000     -1.29190000    0.0242   29.2849
     H     -3.04350000     -1.36160000     -2.84420000    0.0598   29.4009
     H     -2.43150000     -3.20220000     -0.55600000   -0.0023   20.9371
