15
chgs=0 nmr=1 alpha=52.4 b3lypd3vdz=-378.874669521952 
     C     -1.91270000      0.47570000      1.51600000    0.1844   -5.9244
     O     -1.83470000     -0.51030000      0.76680000   -0.2056 -485.0171
     N      0.29000000     -2.47520000     -0.72790000   -0.2072  258.3011
     C      1.51630000     -2.25140000     -1.46470000    0.0746  147.8058
     C      1.94450000     -0.78610000     -1.39400000    0.0631   24.8083
     O      1.25770000      0.07870000     -0.82990000   -0.2720  -85.2422
     N      3.11920000     -0.50300000     -1.99710000   -0.0504  176.9151
     H     -1.50900000      1.44310000      1.18240000    0.0257   21.1699
     H     -2.39240000      0.39280000      2.50240000    0.0126   21.1717
     H     -0.46940000     -1.80640000     -0.84560000    0.0964   29.8319
     H      2.30700000     -2.84320000     -0.97730000    0.0204   28.5054
     H      3.66780000     -1.30950000     -2.29190000    0.0815   28.2498
     H      0.13210000     -3.33170000     -0.23650000    0.0679   31.6080
     H      1.41200000     -2.60180000     -2.50220000    0.0185   27.5309
     H      3.69420000      0.28340000     -1.77130000    0.0902   27.9989
