18
chgs=0 nmr=1 alpha=70.6 b3lypd3vdz=-235.64446278439 
     C      3.96600000      0.65520000     -1.66450000   -0.0677  180.4423
     C      5.43980000      0.31980000     -1.99600000   -0.0649  180.9483
     C      2.08100000      0.19180000      3.00120000    0.0010   70.8648
     C      2.64120000     -0.80650000      2.18810000   -0.0267   53.8695
     C      2.12680000     -2.09980000      2.16000000   -0.0196   55.3732
     C      1.01760000     -2.42980000      2.95410000   -0.0056   69.9896
     H      3.89510000      0.83610000     -0.58100000    0.0235   30.3942
     H      5.58910000      0.39330000     -3.08410000    0.0213   30.3455
     H      6.04570000      1.11050000     -1.53420000    0.0188   30.3433
     H      3.33350000     -0.20980000     -1.91290000    0.0246   30.2577
     H      3.68100000      1.60630000     -2.13800000    0.0224   30.3151
     H      5.72960000     -0.67490000     -1.62650000    0.0226   30.4101
     H      3.50920000     -0.57500000      1.56880000   -0.0160   24.9853
     H      2.57640000     -2.86320000      1.52270000   -0.0207   24.9887
     H      2.49250000      1.21150000      2.97110000    0.0217   25.7868
     H      1.22090000     -0.08240000      3.62970000    0.0224   23.6645
     H      0.57880000     -1.66260000      3.60900000    0.0220   23.7736
     H      0.56610000     -3.43290000      2.95190000    0.0209   25.9079
