15
chgs=0 nmr=1 alpha=54.84 b3lypd3vdz=-287.685799796489 
     C      1.51630000     -2.25140000     -1.46470000   -0.0081  168.9185
     C      1.94450000     -0.78610000     -1.39400000    0.0706   27.0312
     O      1.25770000      0.07870000     -0.82990000   -0.2844 -105.3753
     N      3.11920000     -0.50300000     -1.99710000   -0.1303  140.9072
     C      3.96600000      0.65520000     -1.66450000    0.0688  152.4803
     C      5.43980000      0.31980000     -1.99600000   -0.0587  173.7781
     H      2.30700000     -2.84320000     -0.97730000    0.0309   29.8489
     H      3.66780000     -1.30950000     -2.29190000    0.0776   28.1160
     H      3.89510000      0.83610000     -0.58100000    0.0255   28.2846
     H      5.58910000      0.39330000     -3.08410000    0.0326   29.9728
     H      6.04570000      1.11050000     -1.53420000    0.0313   30.0845
     H      0.58470000     -2.42140000     -0.90500000    0.0439   29.8612
     H      1.41200000     -2.60180000     -2.50220000    0.0424   29.4951
     H      3.68100000      1.60630000     -2.13800000    0.0325   28.4349
     H      5.72960000     -0.67490000     -1.62650000    0.0254   30.6705
