14
chgs=0 nmr=1 alpha=45.79 b3lypd3vdz=-249.540453224521 
     N      3.18890000      3.51260000      1.46050000   -0.2423  267.0357
     C      2.37390000      2.32220000      1.61150000    0.0497  161.8690
     C      1.51630000     -2.25140000     -1.46470000   -0.0387  159.1005
     C      1.94450000     -0.78610000     -1.39400000    0.1277   -9.3696
     O      1.25770000      0.07870000     -0.82990000   -0.2061 -386.4875
     H      2.70330000      4.40390000      1.49810000    0.0734   31.6100
     H      2.62670000      1.62560000      0.80080000    0.0142   28.5182
     H      4.10140000      3.46040000      1.05490000    0.0680   32.2596
     H      1.31330000      2.59870000      1.51820000    0.0194   28.8158
     H      2.56610000      1.80640000      2.56390000   -0.0002   28.7276
     H      2.30700000     -2.84320000     -0.97730000    0.0450   29.4907
     H      0.58470000     -2.42140000     -0.90500000    0.0447   29.3921
     H      1.41200000     -2.60180000     -2.50220000    0.0488   29.2503
     H      2.90130000     -0.55550000     -1.88520000   -0.0035   21.2706
