18
chgs=0 nmr=1 alpha=66.86 b3lypd3vdz=-326.921935384501 
     N      3.11920000     -0.50300000     -1.99710000   -0.1363  155.6718
     C      3.96600000      0.65520000     -1.66450000    0.0436  162.9375
     C      1.94450000     -0.78610000     -1.39400000    0.1919   34.8625
     O      1.25770000      0.07870000     -0.82990000   -0.2833 -118.2868
     C      2.64600000      1.59200000      2.95990000    0.0073  174.6132
     C      2.08100000      0.19180000      3.00120000   -0.1116   46.8916
     C      2.64120000     -0.80650000      2.18810000   -0.0070   60.4139
     H      3.66780000     -1.30950000     -2.29190000    0.0846   27.7800
     H      3.89510000      0.83610000     -0.58100000    0.0437   28.1458
     H      3.68100000      1.60630000     -2.13800000    0.0488   28.4951
     H      5.01370000      0.41680000     -1.90020000    0.0266   29.0966
     H      1.63630000     -1.84080000     -1.44490000   -0.0162   23.3233
     H      3.74190000      1.55800000      3.06080000    0.0281   29.4124
     H      2.25480000      2.20950000      3.78430000    0.0198   29.9323
     H      3.50920000     -0.57500000      1.56880000    0.0001   25.7896
     H      2.45380000      2.10780000      2.00750000    0.0525   29.1702
     H      1.22090000     -0.08240000      3.62970000   -0.0053   24.7011
     H      2.23470000     -1.82840000      2.16590000    0.0126   25.6000
