13
chgs=0 nmr=1 alpha=45.71 b3lypd3vdz=-323.543980214534 
     C      1.94450000     -0.78610000     -1.39400000    0.1785   -4.0994
     O      1.25770000      0.07870000     -0.82990000   -0.2010 -486.8157
     N     -2.50100000      0.37410000      2.72560000   -0.1428  156.5247
     C     -3.06370000     -0.92600000      3.11590000    0.0603  162.5080
     C     -1.91270000      0.47570000      1.51600000    0.2092   38.0213
     O     -1.83470000     -0.51030000      0.76680000   -0.2965 -115.1316
     H      1.63630000     -1.84080000     -1.44490000    0.0162   21.3112
     H      2.90130000     -0.55550000     -1.88520000    0.0079   21.2767
     H     -2.29450000     -1.70630000      3.05990000    0.0439   28.2943
     H     -2.69620000      1.10040000      3.38470000    0.0778   26.9931
     H     -3.86060000     -1.26200000      2.43610000    0.0406   28.4677
     H     -3.40980000     -0.74980000      4.14510000    0.0124   29.2068
     H     -1.50900000      1.44310000      1.18240000   -0.0065   22.8284
