10
chgs=0 nmr=1 alpha=34.46 b3lypd3vdz=-284.261783298601 
     C     -1.91270000      0.47570000      1.51600000    0.1772   -5.1766
     O     -1.83470000     -0.51030000      0.76680000   -0.2076 -504.3957
     N      3.11920000     -0.50300000     -1.99710000   -0.0674  167.2852
     C      1.94450000     -0.78610000     -1.39400000    0.1676   36.9497
     O      1.25770000      0.07870000     -0.82990000   -0.2781 -118.9881
     H     -1.50900000      1.44310000      1.18240000    0.0205   21.1792
     H     -2.39240000      0.39280000      2.50240000    0.0082   21.1488
     H      3.66780000     -1.30950000     -2.29190000    0.0893   28.0571
     H      3.69420000      0.28340000     -1.77130000    0.0954   27.7925
     H      1.63630000     -1.84080000     -1.44490000   -0.0051   23.3195
