14
chgs=0 nmr=1 alpha=42.3 b3lypd3vdz=-195.429718065492 
     C     -2.83870000     -1.09330000     -3.13790000   -0.0767  180.0150
     C     -3.77040000     -0.02030000     -3.68410000   -0.0523  181.5699
     O      0.17140000     -2.23790000     -3.52280000   -0.2944  314.2099
     C      1.36760000     -2.75080000     -2.94330000    0.0980  141.0155
     H     -2.49380000     -1.73900000     -3.96220000    0.0217   30.6961
     H     -3.25600000      0.55400000     -4.46900000    0.0234   30.3914
     H     -4.68470000     -0.46680000     -4.10730000    0.0163   30.4815
     H     -4.05240000      0.68150000     -2.88650000    0.0166   30.5088
     H     -3.34220000     -1.75290000     -2.41580000    0.0090   30.6820
     H     -1.97400000     -0.61410000     -2.65550000    0.0298   30.2314
     H     -0.55590000     -2.85860000     -3.27480000    0.1550   31.9270
     H      2.19480000     -2.32230000     -3.53340000    0.0292   27.8462
     H      1.47190000     -2.40040000     -1.90580000    0.0130   27.7225
     H      1.40180000     -3.84800000     -3.01410000    0.0115   27.8591
