18
chgs=0 nmr=1 alpha=61.0 b3lypd3vdz=-363.983301288012 
     C      1.94450000     -0.78610000     -1.39400000    0.1804   -6.0685
     O      1.25770000      0.07870000     -0.82990000   -0.2022 -466.4386
     C      1.57950000      4.49420000     -1.45790000    0.1838    4.8961
     O      2.47210000      5.11220000     -0.91980000   -0.1900 -406.9269
     C      2.64600000      1.59200000      2.95990000   -0.0048  165.1249
     N      3.18890000      3.51260000      1.46050000   -0.2042  241.0144
     C      2.37390000      2.32220000      1.61150000    0.0250  152.4978
     H      1.63630000     -1.84080000     -1.44490000    0.0211   21.3095
     H      2.90130000     -0.55550000     -1.88520000    0.0185   21.3303
     H      1.70330000      3.85730000     -2.34620000    0.0047   21.4975
     H      0.55720000      4.43690000     -1.05590000    0.0039   21.5202
     H      3.74190000      1.55800000      3.06080000    0.0010   30.8478
     H      2.25480000      2.20950000      3.78430000    0.0068   30.3183
     H      2.70330000      4.40390000      1.49810000    0.0798   30.7714
     H      2.62670000      1.62560000      0.80080000    0.0034   28.7850
     H      2.23450000      0.57230000      2.99000000   -0.0022   30.5966
     H      4.10140000      3.46040000      1.05490000    0.0695   31.6297
     H      1.31330000      2.59870000      1.51820000    0.0054   29.0965
