19
chgs=0 nmr=1 alpha=70.61 b3lypd3vdz=-310.850732212084 
     C      0.45840000     -1.45210000      3.78880000   -0.0671   56.3396
     C      1.01760000     -2.42980000      2.95410000   -0.0567   55.0215
     C     -3.06370000     -0.92600000      3.11590000   -0.0131  130.6977
     C     -4.17810000     -1.39590000      2.16520000    0.1584  -11.8946
     O     -4.36040000     -2.59610000      1.96420000   -0.2092 -381.4364
     C     -3.54840000     -0.67920000      4.55730000   -0.0442  169.0786
     C     -3.88230000      0.82070000      4.57630000   -0.0182  162.9356
     H     -0.38490000     -1.72720000      4.42550000    0.0399   25.0664
     H      0.87270000     -0.43320000      3.79930000    0.0270   24.9898
     H      1.88690000     -2.17120000      2.33170000    0.0324   24.9091
     H      0.56610000     -3.43290000      2.95190000    0.0352   24.8878
     H     -2.29450000     -1.70630000      3.05990000    0.0224   28.5719
     H     -4.39500000     -1.32650000      4.82530000    0.0188   30.1463
     H     -2.72210000     -0.89730000      5.25360000    0.0196   29.8233
     H     -4.86980000      0.99170000      4.11760000    0.0246   29.5718
     H     -3.89940000      1.24920000      5.58850000    0.0167   29.8051
     H     -2.64250000      0.04720000      2.82370000    0.0046   29.0448
     H     -4.78910000     -0.61280000      1.69260000   -0.0119   20.8633
     H     -3.09900000      1.26760000      3.94650000    0.0208   30.0827
