18
chgs=0 nmr=1 alpha=70.63 b3lypd3vdz=-235.630883784982 
     C      2.08100000      0.19180000      3.00120000   -0.0587   57.7237
     C      2.64120000     -0.80650000      2.18810000   -0.0733   54.7680
     C      6.02880000     -1.42020000     -0.11300000   -0.0468   55.5510
     C      3.96600000      0.65520000     -1.66450000   -0.0135  169.8255
     C      5.43980000      0.31980000     -1.99600000    0.0204  165.0949
     C      5.83470000     -1.03550000     -1.49250000   -0.0907   27.6891
     H      3.50920000     -0.57500000      1.56880000    0.0393   25.0793
     H      2.49250000      1.21150000      2.97110000    0.0281   24.9113
     H      1.22090000     -0.08240000      3.62970000    0.0295   25.0342
     H      2.23470000     -1.82840000      2.16590000    0.0277   25.0376
     H      3.89510000      0.83610000     -0.58100000    0.0281   30.1915
     H      5.58910000      0.39330000     -3.08410000    0.0128   29.4878
     H      6.04570000      1.11050000     -1.53420000    0.0195   28.9642
     H      6.20500000     -2.50590000     -0.09900000    0.0185   25.5215
     H      6.04160000     -0.85880000      0.83290000    0.0244   24.7772
     H      3.33350000     -0.20980000     -1.91290000    0.0236   30.2825
     H      3.68100000      1.60630000     -2.13800000    0.0149   30.1286
     H      5.93480000     -1.95560000     -2.08700000   -0.0039   23.9354
