16
chgs=0 nmr=1 alpha=57.1 b3lypd3vdz=-362.844430826158 
     C     -1.91270000      0.47570000      1.51600000    0.1786   -5.6806
     O     -1.83470000     -0.51030000      0.76680000   -0.2084 -500.3757
     C      1.51630000     -2.25140000     -1.46470000   -0.0128  169.4931
     C      1.94450000     -0.78610000     -1.39400000    0.0685   26.1607
     O      1.25770000      0.07870000     -0.82990000   -0.2818 -104.7743
     N      3.11920000     -0.50300000     -1.99710000   -0.1345  164.0090
     C      3.96600000      0.65520000     -1.66450000    0.0571  162.5481
     H     -1.50900000      1.44310000      1.18240000    0.0221   21.1177
     H     -2.39240000      0.39280000      2.50240000    0.0087   21.0983
     H      2.30700000     -2.84320000     -0.97730000    0.0278   29.9482
     H      3.66780000     -1.30950000     -2.29190000    0.0794   27.7392
     H      3.89510000      0.83610000     -0.58100000    0.0330   28.4737
     H      0.58470000     -2.42140000     -0.90500000    0.0559   29.5619
     H      1.41200000     -2.60180000     -2.50220000    0.0408   29.5158
     H      3.68100000      1.60630000     -2.13800000    0.0439   28.6802
     H      5.01370000      0.41680000     -1.90020000    0.0214   29.2545
