16
chgs=0 nmr=1 alpha=70.83 b3lypd3vdz=-234.457798883133 
     C      5.96040000     -2.19040000     -2.23880000    0.0484   55.4948
     C      6.02880000     -1.42020000     -0.11300000    0.0001   29.4046
     C      6.04520000     -0.70090000      1.09900000   -0.0029   78.2719
     C      3.96600000      0.65520000     -1.66450000   -0.0157  173.1595
     C      5.43980000      0.31980000     -1.99600000    0.0264  167.4968
     C      5.83470000     -1.03550000     -1.49250000   -0.1639   37.3011
     H      5.91250000     -2.32370000     -3.31810000   -0.0009   25.7415
     H      5.87840000      0.37770000      1.10230000    0.0111   26.0433
     H      3.89510000      0.83610000     -0.58100000    0.0242   29.8103
     H      5.58910000      0.39330000     -3.08410000    0.0072   29.1206
     H      6.04570000      1.11050000     -1.53420000    0.0143   29.0859
     H      6.15540000     -3.04570000     -1.57510000    0.0081   25.3052
     H      6.20500000     -2.50590000     -0.09900000   -0.0249   24.1579
     H      6.21940000     -1.25390000      2.03380000    0.0230   25.9088
     H      3.33350000     -0.20980000     -1.91290000    0.0273   30.4969
     H      3.68100000      1.60630000     -2.13800000    0.0181   30.1243
