13
chgs=0 nmr=1 alpha=45.92 b3lypd3vdz=-323.544876429959 
     C     -1.91270000      0.47570000      1.51600000    0.1772   -5.1405
     O     -1.83470000     -0.51030000      0.76680000   -0.2073 -504.7006
     N      3.11920000     -0.50300000     -1.99710000   -0.1364  155.5480
     C      3.96600000      0.65520000     -1.66450000    0.0514  163.1236
     C      1.94450000     -0.78610000     -1.39400000    0.1895   34.8494
     O      1.25770000      0.07870000     -0.82990000   -0.2857 -117.2998
     H     -1.50900000      1.44310000      1.18240000    0.0203   21.1493
     H     -2.39240000      0.39280000      2.50240000    0.0080   21.1351
     H      3.66780000     -1.30950000     -2.29190000    0.0844   27.7990
     H      3.89510000      0.83610000     -0.58100000    0.0365   28.3891
     H      3.68100000      1.60630000     -2.13800000    0.0482   28.5720
     H      5.01370000      0.41680000     -1.90020000    0.0261   29.1654
     H      1.63630000     -1.84080000     -1.44490000   -0.0122   23.2509
