18
chgs=0 nmr=1 alpha=77.71 b3lypd3vdz=-289.731210016248 
     C      2.08100000      0.19180000      3.00120000   -0.0620   58.8565
     C      2.64120000     -0.80650000      2.18810000   -0.0686   53.3374
     C      6.02880000     -1.42020000     -0.11300000    0.0191   41.1958
     N      6.20610000     -3.26820000     -1.40250000   -0.0666  182.3981
     C      6.25690000     -2.82580000     -0.09490000   -0.1056   47.0554
     C      6.04520000     -0.70090000      1.09900000    0.0240   71.3020
     C      6.47650000     -3.53090000      1.09720000   -0.0321  119.8726
     H      3.50920000     -0.57500000      1.56880000    0.0343   24.8805
     H      2.49250000      1.21150000      2.97110000    0.0249   25.0503
     H      1.22090000     -0.08240000      3.62970000    0.0267   25.1229
     H      2.23470000     -1.82840000      2.16590000    0.0269   25.0116
     H      6.40150000     -4.21130000     -1.70730000    0.0895   28.1006
     H      5.87840000      0.37770000      1.10230000    0.0252   26.0750
     H      6.64460000     -4.61050000      1.09690000   -0.0150   27.8682
     H      5.88110000     -1.12740000     -1.16300000   -0.0385   25.5018
     H      6.02880000     -2.49070000     -2.00580000    0.0684   28.8603
     H      6.21940000     -1.25390000      2.03380000    0.0423   23.9149
     H      6.47380000     -2.95250000      2.03290000    0.0071   26.3015
