15
chgs=0 nmr=1 alpha=54.49 b3lypd3vdz=-287.64796815889 
     C      2.08100000      0.19180000      3.00120000   -0.0580   56.6376
     C      2.64120000     -0.80650000      2.18810000   -0.0737   56.3503
     N      2.23970000      2.31020000     -2.25620000   -0.0701  168.8856
     C      3.96600000      0.65520000     -1.66450000   -0.0284  168.7048
     C      3.56570000      1.99100000     -2.32950000    0.0417   31.6809
     O      4.40780000      2.72380000     -2.83520000   -0.2609  -86.3337
     H      3.50920000     -0.57500000      1.56880000    0.0346   25.2456
     H      2.49250000      1.21150000      2.97110000    0.0332   24.8494
     H      1.22090000     -0.08240000      3.62970000    0.0331   24.9551
     H      2.23470000     -1.82840000      2.16590000    0.0319   25.0307
     H      1.62560000      1.68770000     -1.72520000    0.0947   27.2314
     H      3.89510000      0.83610000     -0.58100000    0.0507   29.5752
     H      1.90410000      3.20400000     -2.55380000    0.0951   27.7249
     H      3.33350000     -0.20980000     -1.91290000    0.0319   29.6781
     H      5.01370000      0.41680000     -1.90020000    0.0443   29.8352
