20
chgs=0 nmr=1 alpha=77.5 b3lypd3vdz=-290.94827643982 
     N     -2.50100000      0.37410000      2.72560000   -0.2043  235.3831
     C     -3.06370000     -0.92600000      3.11590000    0.0545  155.6843
     C     -3.54840000     -0.67920000      4.55730000   -0.0401  168.2123
     C      0.98480000     -0.15760000      3.80220000    0.0056   70.9117
     C      2.12680000     -2.09980000      2.16000000    0.0042   72.3105
     C      0.45840000     -1.45210000      3.78880000   -0.0167   54.9593
     C      1.01760000     -2.42980000      2.95410000   -0.0328   52.7552
     H     -2.29450000     -1.70630000      3.05990000   -0.0019   28.9664
     H     -4.39500000     -1.32650000      4.82530000    0.0166   30.0071
     H     -2.72210000     -0.89730000      5.25360000    0.0277   29.6741
     H     -2.06490000      0.44940000      1.82890000    0.0741   31.4374
     H     -2.69620000      1.10040000      3.38470000    0.0694   32.1980
     H     -3.86060000     -1.26200000      2.43610000   -0.0059   28.7689
     H     -3.78740000      0.39440000      4.57090000    0.0160   31.2078
     H      0.53070000      0.59650000      4.45220000    0.0117   26.1177
     H      2.57640000     -2.86320000      1.52270000    0.0148   26.1532
     H     -0.38490000     -1.72720000      4.42550000   -0.0164   24.8965
     H      1.84490000      0.11660000      3.17370000    0.0205   23.6967
     H      2.53330000     -1.07790000      2.18220000    0.0232   23.5773
     H      0.56610000     -3.43290000      2.95190000   -0.0200   24.7912
