16
chgs=0 nmr=1 alpha=57.32 b3lypd3vdz=-362.851531446192 
     C      1.94450000     -0.78610000     -1.39400000    0.1834   -6.9232
     O      1.25770000      0.07870000     -0.82990000   -0.2091 -459.3062
     C      5.13490000      4.75780000      0.58520000    0.0107  169.5173
     C      4.42820000      3.44170000      0.90960000    0.0760   28.3241
     O      4.96590000      2.35460000      0.66000000   -0.3008  -72.7054
     N      3.18890000      3.51260000      1.46050000   -0.1486  152.9158
     C      2.37390000      2.32220000      1.61150000    0.0586  163.5935
     H      1.63630000     -1.84080000     -1.44490000    0.0182   21.2664
     H      2.90130000     -0.55550000     -1.88520000    0.0265   21.3358
     H      5.99190000      4.83530000      1.27870000    0.0544   29.4634
     H      4.47090000      5.61460000      0.77610000    0.0008   30.3521
     H      2.70330000      4.40390000      1.49810000    0.0812   27.0176
     H      2.62670000      1.62560000      0.80080000    0.0458   27.8311
     H      5.50070000      4.80480000     -0.45110000    0.0517   29.5872
     H      1.31330000      2.59870000      1.51820000    0.0205   29.1467
     H      2.56610000      1.80640000      2.56390000    0.0306   29.1000
