14
chgs=0 nmr=1 alpha=55.01 b3lypd3vdz=-361.669753759219 
     C      1.51630000     -2.25140000     -1.46470000   -0.0062  169.1019
     C      1.94450000     -0.78610000     -1.39400000    0.0731   24.5075
     O      1.25770000      0.07870000     -0.82990000   -0.2816 -100.9523
     N      3.11920000     -0.50300000     -1.99710000   -0.1270  160.4971
     C      3.96600000      0.65520000     -1.66450000    0.0623  134.2870
     C      3.56570000      1.99100000     -2.32950000    0.1627   -5.9493
     O      4.40780000      2.72380000     -2.83520000   -0.2009 -361.8097
     H      2.30700000     -2.84320000     -0.97730000    0.0359   29.7469
     H      3.66780000     -1.30950000     -2.29190000    0.0891   27.3708
     H      3.89510000      0.83610000     -0.58100000    0.0504   27.5340
     H      0.58470000     -2.42140000     -0.90500000    0.0497   29.6863
     H      1.41200000     -2.60180000     -2.50220000    0.0478   29.3999
     H      5.01370000      0.41680000     -1.90020000    0.0286   28.5039
     H      2.49780000      2.24810000     -2.27050000    0.0161   21.3354
