15
chgs=0 nmr=1 alpha=53.47 b3lypd3vdz=-378.922110115358 
     N      3.11920000     -0.50300000     -1.99710000   -0.0659  163.3955
     C      1.94450000     -0.78610000     -1.39400000    0.1738   35.8080
     O      1.25770000      0.07870000     -0.82990000   -0.2850 -101.3546
     C      4.42820000      3.44170000      0.90960000    0.1967   35.9133
     O      4.96590000      2.35460000      0.66000000   -0.3062  -92.4970
     N      3.18890000      3.51260000      1.46050000   -0.1450  148.2627
     C      2.37390000      2.32220000      1.61150000    0.0531  164.5881
     H      3.66780000     -1.30950000     -2.29190000    0.0914   27.9009
     H      3.69420000      0.28340000     -1.77130000    0.1085   27.3676
     H      1.63630000     -1.84080000     -1.44490000   -0.0039   23.3079
     H      2.70330000      4.40390000      1.49810000    0.0837   27.1740
     H      2.62670000      1.62560000      0.80080000    0.0504   27.4243
     H      4.93670000      4.38870000      0.67620000   -0.0133   23.1995
     H      1.31330000      2.59870000      1.51820000    0.0280   29.1285
     H      2.56610000      1.80640000      2.56390000    0.0337   29.0185
