12
chgs=0 nmr=1 alpha=46.72 b3lypd3vdz=-157.115876155876 
     C      2.64600000      1.59200000      2.95990000    0.0168  159.1238
     C      2.08100000      0.19180000      3.00120000   -0.0877   39.5653
     C      0.98480000     -0.15760000      3.80220000   -0.0069   65.4318
     C      2.37390000      2.32220000      1.61150000   -0.0238  173.4875
     H      3.74190000      1.55800000      3.06080000    0.0165   29.2163
     H      2.25480000      2.20950000      3.78430000    0.0050   29.2252
     H      0.53070000      0.59650000      4.45220000    0.0121   25.6402
     H      2.62670000      1.62560000      0.80080000    0.0162   30.5090
     H      2.51990000     -0.59030000      2.36420000   -0.0094   24.7324
     H      0.57050000     -1.17650000      3.79170000    0.0197   25.6862
     H      2.99190000      3.22490000      1.49700000    0.0158   30.2906
     H      1.31330000      2.59870000      1.51820000    0.0256   30.4659
