18
chgs=0 nmr=1 alpha=66.12 b3lypd3vdz=-326.96923184539 
     C     -1.35040000      1.82310000      1.05140000   -0.0286  164.0558
     C     -1.91270000      0.47570000      1.51600000    0.0923   24.2413
     O     -1.83470000     -0.51030000      0.76680000   -0.2958  -63.1272
     C     -1.88600000      2.12790000     -0.35750000   -0.0115  178.1638
     N     -2.50100000      0.37410000      2.72560000   -0.1224  127.6016
     C     -3.88230000      0.82070000      4.57630000   -0.0366  169.7534
     C     -2.78870000      1.44460000      3.69700000    0.0588  152.4617
     H     -1.61820000      2.64140000      1.72800000   -0.0027   29.5544
     H     -1.37820000      3.00360000     -0.78400000    0.0078   30.5711
     H     -1.69840000      1.28000000     -1.04010000    0.0438   29.4824
     H     -4.86980000      0.99170000      4.11760000    0.0388   29.5682
     H     -3.89940000      1.24920000      5.58850000    0.0277   29.9109
     H     -1.88090000      1.68360000      4.27730000    0.0252   28.2760
     H     -3.13200000      2.35020000      3.17990000    0.0416   28.2476
     H     -0.25490000      1.72910000      1.08280000    0.0405   29.7934
     H     -2.96960000      2.31430000     -0.32560000    0.0182   30.7074
     H     -2.88390000     -0.51070000      2.99120000    0.0789   28.4050
     H     -3.64330000     -0.25290000      4.56270000    0.0239   30.7339
