16
chgs=0 nmr=1 alpha=74.41 b3lypd3vdz=-234.405825125609 
     C      2.08100000      0.19180000      3.00120000   -0.0615   58.8383
     C      2.64120000     -0.80650000      2.18810000   -0.0696   52.9362
     C      5.96040000     -2.19040000     -2.23880000    0.0313   50.1693
     C      6.02880000     -1.42020000     -0.11300000   -0.0170   27.3414
     C      6.04520000     -0.70090000      1.09900000   -0.0050   74.7723
     C      5.83470000     -1.03550000     -1.49250000   -0.0474   52.8126
     H      3.50920000     -0.57500000      1.56880000    0.0374   24.7804
     H      2.49250000      1.21150000      2.97110000    0.0255   25.0251
     H      1.22090000     -0.08240000      3.62970000    0.0264   25.1279
     H      2.23470000     -1.82840000      2.16590000    0.0228   25.0885
     H      5.91250000     -2.32370000     -3.31810000    0.0102   25.4798
     H      5.87840000      0.37770000      1.10230000    0.0178   25.9570
     H      6.15540000     -3.04570000     -1.57510000    0.0185   24.6808
     H      6.20500000     -2.50590000     -0.09900000   -0.0142   24.0684
     H      6.21940000     -1.25390000      2.03380000    0.0299   25.8811
     H      5.54490000     -0.04080000     -1.86200000   -0.0051   24.2439
