5
chgs=0 nmr=1 alpha=13.39 b3lypd3vdz=-40.481623440935 
     C     -1.35040000      1.82310000      1.05140000   -0.1244  196.7961
     H     -1.61820000      2.64140000      1.72800000    0.0309   31.1511
     H     -0.25490000      1.72910000      1.08280000    0.0295   31.0611
     H     -1.75410000      0.85570000      1.38500000    0.0306   31.0513
     H     -1.73350000      2.04110000      0.04360000    0.0334   31.0106
