18
chgs=0 nmr=1 alpha=81.57 b3lypd3vdz=-289.718551329689 
     C      2.08100000      0.19180000      3.00120000   -0.0666   60.6195
     C      2.64120000     -0.80650000      2.18810000   -0.0573   50.5729
     C      6.02880000     -1.42020000     -0.11300000   -0.0160   76.0147
     N      6.20610000     -3.26820000     -1.40250000   -0.0443  185.4228
     C      6.25690000     -2.82580000     -0.09490000    0.0074   46.1836
     C      6.04520000     -0.70090000      1.09900000   -0.0135   56.8257
     C      6.26560000     -1.40060000      2.28170000   -0.0274   91.6642
     H      3.50920000     -0.57500000      1.56880000    0.0432   24.7093
     H      2.49250000      1.21150000      2.97110000    0.0232   25.1030
     H      1.22090000     -0.08240000      3.62970000    0.0225   25.1985
     H      2.23470000     -1.82840000      2.16590000    0.0185   24.9346
     H      6.40150000     -4.21130000     -1.70730000    0.0918   28.5740
     H      5.87840000      0.37770000      1.10230000   -0.0244   25.3522
     H      6.27140000     -0.86200000      3.23210000   -0.0014   27.3245
     H      5.88110000     -1.12740000     -1.16300000   -0.0615   25.7123
     H      6.02880000     -2.49070000     -2.00580000    0.0864   26.8146
     H      6.42920000     -3.37890000      0.84020000    0.0250   21.6606
     H      6.42710000     -2.48870000      2.28190000   -0.0056   24.9551
