21
chgs=0 nmr=1 alpha=67.62 b3lypd3vdz=-349.229182865779 
     C     -6.72760000      0.54920000      0.23110000   -0.0726  182.6081
     C     -7.17340000      0.66390000     -1.24020000   -0.0843  182.0367
     C     -2.83870000     -1.09330000     -3.13790000   -0.0625  181.8131
     C     -3.77040000     -0.02030000     -3.68410000   -0.0768  180.9769
     C     -3.36750000      2.38270000     -0.31390000    0.2376   34.9152
     O     -4.04740000      2.27800000      0.70320000   -0.2421 -118.8433
     O     -3.88670000      2.72240000     -1.49350000   -0.1524  125.2807
     H     -7.60780000      0.64120000      0.88650000    0.0148   30.5989
     H     -6.07680000      1.40620000      0.44970000    0.0240   29.2204
     H     -6.30940000      0.50900000     -1.90500000    0.0193   30.4907
     H     -7.93760000     -0.07880000     -1.49670000    0.0219   30.4795
     H     -6.18380000     -0.37210000      0.48700000    0.0194   30.7640
     H     -7.57180000      1.66990000     -1.43800000    0.0116   30.6864
     H     -2.49380000     -1.73900000     -3.96220000    0.0197   30.3581
     H     -3.25600000      0.55400000     -4.46900000    0.0174   30.4621
     H     -4.68470000     -0.46680000     -4.10730000    0.0208   30.4569
     H     -4.05240000      0.68150000     -2.88650000    0.0284   30.0531
     H     -3.34220000     -1.75290000     -2.41580000    0.0208   30.4850
     H     -1.97400000     -0.61410000     -2.65550000    0.0153   30.4808
     H     -4.86380000      2.83350000     -1.40270000    0.1788   25.1395
     H     -2.28390000      2.19630000     -0.34580000    0.0411   23.4874
