9
chgs=0 nmr=1 alpha=31.0 b3lypd3vdz=-209.061228752791 
     C     -1.36200000     -4.02470000      0.28750000    0.0618  137.1329
     C      0.07660000     -3.63300000     -0.06370000    0.1441  -23.0091
     O      0.98870000     -4.40750000      0.25670000   -0.2220 -389.6027
     N     -2.40610000     -3.22870000     -0.31420000   -0.2196  263.1570
     H     -1.46800000     -3.96920000      1.37910000    0.0491   28.2251
     H     -1.43760000     -5.08370000     -0.00650000    0.0367   27.7358
     H     -3.05840000     -2.77050000      0.31520000    0.0867   30.9505
     H      0.25030000     -2.69080000     -0.60420000   -0.0170   21.0057
     H     -2.51000000     -3.12050000     -1.30290000    0.0803   31.0691
