16
chgs=0 nmr=1 alpha=58.63 b3lypd3vdz=-362.855623136935 
     C     -1.36200000     -4.02470000      0.28750000    0.0608  167.1654
     C     -2.54580000     -3.08320000     -1.64360000    0.1847   37.5907
     O     -1.85310000     -3.71080000     -2.46200000   -0.3004 -106.2623
     N     -2.40610000     -3.22870000     -0.31420000   -0.1366  151.4172
     C     -3.06370000     -0.92600000      3.11590000   -0.0431  158.9621
     C     -4.17810000     -1.39590000      2.16520000    0.1287  -14.2861
     O     -4.36040000     -2.59610000      1.96420000   -0.2154 -375.0066
     H     -1.46800000     -3.96920000      1.37910000    0.0185   29.3431
     H     -1.43760000     -5.08370000     -0.00650000    0.0391   28.4415
     H     -3.05840000     -2.77050000      0.31520000    0.0858   27.3636
     H     -0.32890000     -3.74340000      0.03530000    0.0347   28.8710
     H     -3.26280000     -2.32260000     -1.98630000   -0.0241   23.3982
     H     -2.29450000     -1.70630000      3.05990000    0.0518   29.3930
     H     -2.64250000      0.04720000      2.82370000    0.0384   29.0748
     H     -3.40980000     -0.74980000      4.14510000    0.0662   29.0654
     H     -4.78910000     -0.61280000      1.69260000    0.0109   20.9138
