15
chgs=0 nmr=1 alpha=54.84 b3lypd3vdz=-287.685346417893 
     C     -5.95950000     -0.75220000      0.59260000   -0.0066  157.5726
     C     -5.44150000     -1.47950000     -0.66470000    0.1165   26.3537
     O     -6.22450000     -2.15670000     -1.31890000   -0.2802  -42.5227
     C     -6.72760000      0.54920000      0.23110000   -0.0181  178.8924
     N     -4.14050000     -1.27530000     -1.02540000   -0.1581  156.4569
     C     -3.54700000     -2.02120000     -2.12210000    0.0500  167.7318
     H     -6.64650000     -1.48990000      1.03030000    0.0347   29.2944
     H     -7.60780000      0.64120000      0.88650000    0.0264   30.0556
     H     -6.07680000      1.40620000      0.44970000    0.0166   30.3782
     H     -3.49920000     -0.77170000     -0.41380000    0.0829   27.2312
     H     -4.37040000     -2.54620000     -2.62940000    0.0545   27.1502
     H     -5.18710000     -0.50780000      1.33670000   -0.0054   29.7223
     H     -7.04570000      0.63100000     -0.81870000    0.0355   30.2705
     H     -2.83000000     -2.78180000     -1.77940000    0.0262   29.3700
     H     -3.04350000     -1.36160000     -2.84420000    0.0251   29.3617
