7
chgs=0 nmr=1 alpha=25.03 b3lypd3vdz=-153.750614386979 
     C     -3.06370000     -0.92600000      3.11590000   -0.0451  160.6065
     C     -4.17810000     -1.39590000      2.16520000    0.1233   -6.7274
     O     -4.36040000     -2.59610000      1.96420000   -0.2062 -393.0208
     H     -2.29450000     -1.70630000      3.05990000    0.0505   29.4920
     H     -2.64250000      0.04720000      2.82370000    0.0270   29.3645
     H     -3.40980000     -0.74980000      4.14510000    0.0556   29.3282
     H     -4.78910000     -0.61280000      1.69260000   -0.0050   21.1911
