13
chgs=0 nmr=1 alpha=45.28 b3lypd3vdz=-323.561767758527 
     C     -1.91270000      0.47570000      1.51600000    0.1786   -5.6892
     O     -1.83470000     -0.51030000      0.76680000   -0.2086 -500.0206
     N      3.11920000     -0.50300000     -1.99710000   -0.0518  174.1818
     C      1.51630000     -2.25140000     -1.46470000   -0.0159  169.5261
     C      1.94450000     -0.78610000     -1.39400000    0.0363   27.8116
     O      1.25770000      0.07870000     -0.82990000   -0.2713 -108.2471
     H     -1.50900000      1.44310000      1.18240000    0.0223   21.1534
     H     -2.39240000      0.39280000      2.50240000    0.0088   21.1143
     H      3.66780000     -1.30950000     -2.29190000    0.0810   27.9407
     H      2.30700000     -2.84320000     -0.97730000    0.0297   29.8546
     H      3.69420000      0.28340000     -1.77130000    0.0911   28.0658
     H      0.58470000     -2.42140000     -0.90500000    0.0574   29.5165
     H      1.41200000     -2.60180000     -2.50220000    0.0423   29.4451
