15
chgs=0 nmr=1 alpha=53.63 b3lypd3vdz=-378.933055808007 
     C     -2.54580000     -3.08320000     -1.64360000    0.1678   38.2678
     O     -1.85310000     -3.71080000     -2.46200000   -0.3033  -95.9746
     N     -2.40610000     -3.22870000     -0.31420000   -0.0429  157.6188
     N     -2.50100000      0.37410000      2.72560000   -0.0495  168.1240
     C     -1.35040000      1.82310000      1.05140000    0.0139  171.0155
     C     -1.91270000      0.47570000      1.51600000    0.0418   28.8587
     O     -1.83470000     -0.51030000      0.76680000   -0.2895  -72.9021
     H     -3.05840000     -2.77050000      0.31520000    0.0851   27.2612
     H     -3.26280000     -2.32260000     -1.98630000   -0.0149   23.3126
     H     -1.68320000     -3.77990000      0.10240000    0.0890   27.3485
     H     -1.61820000      2.64140000      1.72800000    0.0055   30.2522
     H     -2.88390000     -0.51070000      2.99120000    0.0866   28.1756
     H     -2.69620000      1.10040000      3.38470000    0.0850   27.3325
     H     -0.25490000      1.72910000      1.08280000    0.0635   29.4489
     H     -1.73350000      2.04110000      0.04360000    0.0620   29.4563
