16
chgs=0 nmr=1 alpha=54.19 b3lypd3vdz=-213.59097401793 
     C      0.98480000     -0.15760000      3.80220000   -0.0591   59.2146
     C      0.45840000     -1.45210000      3.78880000   -0.0558   58.7608
     N     -2.50100000      0.37410000      2.72560000   -0.2783  258.0775
     C     -3.06370000     -0.92600000      3.11590000    0.0690  144.8718
     C     -2.78870000      1.44460000      3.69700000    0.0786  144.5595
     H      0.53070000      0.59650000      4.45220000    0.0333   25.0951
     H     -0.38490000     -1.72720000      4.42550000    0.0349   24.9450
     H      1.84490000      0.11660000      3.17370000    0.0264   25.0697
     H      0.89720000     -2.21930000      3.13390000    0.0244   25.1313
     H     -2.29450000     -1.70630000      3.05990000    0.0078   28.3676
     H     -1.88090000      1.68360000      4.27730000    0.0092   27.7297
     H     -3.13200000      2.35020000      3.17990000    0.0143   28.0907
     H     -2.06490000      0.44940000      1.82890000    0.0593   32.9937
     H     -3.86060000     -1.26200000      2.43610000    0.0008   28.1676
     H     -3.40980000     -0.74980000      4.14510000    0.0148   29.0885
     H     -3.57200000      0.99770000      4.32680000    0.0206   28.7899
