7
chgs=0 nmr=1 alpha=25.16 b3lypd3vdz=-153.752423355204 
     C      1.51630000     -2.25140000     -1.46470000   -0.0415  159.0727
     C      1.94450000     -0.78610000     -1.39400000    0.1240   -8.3838
     O      1.25770000      0.07870000     -0.82990000   -0.2125 -393.9298
     H      2.30700000     -2.84320000     -0.97730000    0.0434   29.5224
     H      0.58470000     -2.42140000     -0.90500000    0.0436   29.4003
     H      1.41200000     -2.60180000     -2.50220000    0.0483   29.2728
     H      2.90130000     -0.55550000     -1.88520000   -0.0053   21.2973
