12
chgs=0 nmr=1 alpha=43.14 b3lypd3vdz=-343.440641442175 
     C      1.57950000      4.49420000     -1.45790000    0.2318   38.6442
     O      0.32590000      4.42390000     -0.96490000   -0.1677  129.6807
     O      2.47210000      5.11220000     -0.91980000   -0.2302 -117.6902
     C     -1.88600000      2.12790000     -0.35750000   -0.0555  158.8500
     C     -3.36750000      2.38270000     -0.31390000    0.1179   -4.3780
     O     -4.04740000      2.27800000      0.70320000   -0.2091 -360.4829
     H      0.33700000      4.72390000     -0.02600000    0.1734   25.8454
     H      1.70330000      3.85730000     -2.34620000    0.0297   23.6887
     H     -1.37820000      3.00360000     -0.78400000    0.0487   28.3984
     H     -1.69840000      1.28000000     -1.04010000    0.0442   29.4336
     H     -1.50290000      1.90990000      0.65030000    0.0332   29.6649
     H     -3.79600000      2.66310000     -1.28740000   -0.0163   21.5020
