13
chgs=0 nmr=1 alpha=49.51 b3lypd3vdz=-377.737385469363 
     C     -5.95950000     -0.75220000      0.59260000    0.1077  145.7661
     C     -5.44150000     -1.47950000     -0.66470000    0.0841   31.8770
     O     -6.22450000     -2.15670000     -1.31890000   -0.2595  -69.1535
     N     -4.14050000     -1.27530000     -1.02540000   -0.0669  172.7447
     C     -4.17810000     -1.39590000      2.16520000    0.1888   37.8451
     O     -4.36040000     -2.59610000      1.96420000   -0.2662 -119.7750
     N     -4.93360000     -0.42760000      1.58080000   -0.1602  144.4203
     H     -6.64650000     -1.48990000      1.03030000    0.0648   27.3346
     H     -3.49920000     -0.77170000     -0.41380000    0.0827   26.7138
     H     -4.60560000      0.53540000      1.61300000    0.0879   26.9862
     H     -6.50330000      0.16910000      0.33670000    0.0482   28.2912
     H     -3.73200000     -1.78860000     -1.78020000    0.1000   27.8360
     H     -3.38120000     -1.05990000      2.84500000   -0.0114   23.1129
