18
chgs=0 nmr=1 alpha=83.77 b3lypd3vdz=-289.77195093031 
     C      6.02880000     -1.42020000     -0.11300000    0.0175   41.3915
     C      6.04520000     -0.70090000      1.09900000   -0.0171   57.3197
     C      6.26560000     -1.40060000      2.28170000    0.0124   66.8048
     N      3.11920000     -0.50300000     -1.99710000   -0.2115  245.1829
     C      3.96600000      0.65520000     -1.66450000    0.1006  145.9262
     C      5.43980000      0.31980000     -1.99600000    0.0422  162.8683
     C      5.83470000     -1.03550000     -1.49250000   -0.0993   45.6349
     H      5.87840000      0.37770000      1.10230000   -0.0175   24.1771
     H      6.27140000     -0.86200000      3.23210000    0.0144   26.0568
     H      3.66780000     -1.30950000     -2.29190000    0.0683   31.4936
     H      3.89510000      0.83610000     -0.58100000   -0.0026   28.2495
     H      5.58910000      0.39330000     -3.08410000    0.0185   29.2137
     H      6.04570000      1.11050000     -1.53420000    0.0176   28.8609
     H      6.20500000     -2.50590000     -0.09900000   -0.0277   24.7478
     H      6.42710000     -2.48870000      2.28190000    0.0202   25.7078
     H      2.24940000     -0.71260000     -1.55050000    0.0720   31.8111
     H      3.68100000      1.60630000     -2.13800000    0.0018   28.6313
     H      5.93480000     -1.95560000     -2.08700000   -0.0098   25.1721
