19
chgs=0 nmr=1 alpha=80.75 b3lypd3vdz=-273.704699200572 
     C      6.04520000     -0.70090000      1.09900000   -0.0586   58.9439
     C      6.26560000     -1.40060000      2.28170000   -0.0483   56.9095
     C      2.64600000      1.59200000      2.95990000    0.0457  171.9704
     C      2.08100000      0.19180000      3.00120000   -0.1810   47.9605
     C      2.64120000     -0.80650000      2.18810000    0.0195   66.5799
     C      0.98480000     -0.15760000      3.80220000   -0.0059   52.4600
     C      0.45840000     -1.45210000      3.78880000    0.0101   72.3335
     H      5.87840000      0.37770000      1.10230000    0.0328   25.0431
     H      6.27140000     -0.86200000      3.23210000    0.0303   25.2333
     H      6.03240000     -1.26230000      0.15310000    0.0310   25.1109
     H      6.42710000     -2.48870000      2.28190000    0.0311   25.0012
     H      3.74190000      1.55800000      3.06080000    0.0349   29.2360
     H      2.25480000      2.20950000      3.78430000    0.0135   30.3066
     H      3.50920000     -0.57500000      1.56880000   -0.0022   25.9083
     H      0.53070000      0.59650000      4.45220000   -0.0348   25.2347
     H     -0.38490000     -1.72720000      4.42550000    0.0120   26.2763
     H      2.45380000      2.10780000      2.00750000    0.0426   29.3223
     H      2.23470000     -1.82840000      2.16590000    0.0094   23.8776
     H      0.89720000     -2.21930000      3.13390000    0.0181   24.1337
