16
chgs=0 nmr=1 alpha=66.15 b3lypd3vdz=-325.740913952275 
     C      4.42820000      3.44170000      0.90960000    0.2050   36.2069
     O      4.96590000      2.35460000      0.66000000   -0.2922 -102.5809
     N      3.18890000      3.51260000      1.46050000   -0.1296  140.9368
     C      2.37390000      2.32220000      1.61150000    0.0773  149.0847
     C      2.64600000      1.59200000      2.95990000    0.0555  151.1719
     C      2.08100000      0.19180000      3.00120000   -0.0973   43.5322
     C      0.98480000     -0.15760000      3.80220000   -0.0048   63.9349
     H      2.70330000      4.40390000      1.49810000    0.0830   26.8479
     H      2.62670000      1.62560000      0.80080000    0.0308   27.6045
     H      3.74190000      1.55800000      3.06080000    0.0340   28.8469
     H      2.25480000      2.20950000      3.78430000   -0.0037   29.2698
     H      0.53070000      0.59650000      4.45220000    0.0108   25.6474
     H      4.93670000      4.38870000      0.67620000   -0.0083   23.1138
     H      1.31330000      2.59870000      1.51820000    0.0155   29.1440
     H      2.51990000     -0.59030000      2.36420000    0.0015   24.6453
     H      0.57050000     -1.17650000      3.79170000    0.0225   25.6355
