13
chgs=0 nmr=1 alpha=45.52 b3lypd3vdz=-323.555255910567 
     C      1.57950000      4.49420000     -1.45790000    0.1829    3.0567
     O      2.47210000      5.11220000     -0.91980000   -0.1936 -405.3730
     C      4.42820000      3.44170000      0.90960000    0.2006   35.0481
     O      4.96590000      2.35460000      0.66000000   -0.2996 -101.3427
     N      3.18890000      3.51260000      1.46050000   -0.1485  151.9863
     C      2.37390000      2.32220000      1.61150000    0.0558  166.9134
     H      1.70330000      3.85730000     -2.34620000    0.0198   21.6429
     H      0.55720000      4.43690000     -1.05590000    0.0062   21.6360
     H      2.70330000      4.40390000      1.49810000    0.0857   27.3371
     H      2.62670000      1.62560000      0.80080000    0.0401   28.0754
     H      4.93670000      4.38870000      0.67620000   -0.0055   23.1579
     H      1.31330000      2.59870000      1.51820000    0.0146   29.5938
     H      2.56610000      1.80640000      2.56390000    0.0415   28.9571
