19
chgs=0 nmr=1 alpha=60.47 b3lypd3vdz=-385.090480880357 
     C     -2.83870000     -1.09330000     -3.13790000    0.0939  144.2360
     O     -1.71160000     -0.46870000     -2.50910000   -0.3021  338.4742
     O      0.17140000     -2.23790000     -3.52280000   -0.2928  317.9762
     C      1.36760000     -2.75080000     -2.94330000    0.0956  141.5218
     C     -1.88600000      2.12790000     -0.35750000   -0.0553  159.3677
     C     -3.36750000      2.38270000     -0.31390000    0.1186   -5.6415
     O     -4.04740000      2.27800000      0.70320000   -0.2179 -351.0496
     H     -2.49380000     -1.73900000     -3.96220000    0.0050   28.3541
     H     -0.90150000     -0.86780000     -2.89010000    0.1396   28.5129
     H     -3.34220000     -1.75290000     -2.41580000    0.0159   28.1628
     H     -3.51190000     -0.31800000     -3.53260000    0.0295   27.9603
     H     -0.55590000     -2.85860000     -3.27480000    0.1659   31.2255
     H      2.19480000     -2.32230000     -3.53340000    0.0419   27.7206
     H      1.47190000     -2.40040000     -1.90580000    0.0300   27.6318
     H      1.40180000     -3.84800000     -3.01410000    0.0282   27.7724
     H     -1.37820000      3.00360000     -0.78400000    0.0294   29.7328
     H     -1.69840000      1.28000000     -1.04010000    0.0682   28.0135
     H     -1.50290000      1.90990000      0.65030000    0.0279   29.7593
     H     -3.79600000      2.66310000     -1.28740000   -0.0215   21.4387
