16
chgs=0 nmr=1 alpha=57.49 b3lypd3vdz=-362.844344231509 
     C      1.94450000     -0.78610000     -1.39400000    0.1830   -7.0038
     O      1.25770000      0.07870000     -0.82990000   -0.2084 -459.6603
     C      4.42820000      3.44170000      0.90960000    0.2055   36.4304
     O      4.96590000      2.35460000      0.66000000   -0.2982  -97.4672
     N      3.18890000      3.51260000      1.46050000   -0.1273  138.0361
     C      2.37390000      2.32220000      1.61150000    0.0382  153.8465
     C      2.64600000      1.59200000      2.95990000   -0.0244  173.0860
     H      1.63630000     -1.84080000     -1.44490000    0.0185   21.2424
     H      2.90130000     -0.55550000     -1.88520000    0.0265   21.3248
     H      2.70330000      4.40390000      1.49810000    0.0806   26.8214
     H      2.62670000      1.62560000      0.80080000    0.0386   27.3518
     H      3.74190000      1.55800000      3.06080000    0.0347   30.1152
     H      2.25480000      2.20950000      3.78430000    0.0096   30.4630
     H      4.93670000      4.38870000      0.67620000   -0.0127   23.1317
     H      1.31330000      2.59870000      1.51820000    0.0137   28.8965
     H      2.23450000      0.57230000      2.99000000    0.0218   30.5278
