15
b3lypd3vdz=-378.920676820718 
     C      0.07660000     -3.63300000     -0.06370000
     O      0.98870000     -4.40750000      0.25670000
     N      0.29000000     -2.47520000     -0.72790000
     C      1.51630000     -2.25140000     -1.46470000
     N     -2.50100000      0.37410000      2.72560000
     C     -1.91270000      0.47570000      1.51600000
     O     -1.83470000     -0.51030000      0.76680000
     H     -0.46940000     -1.80640000     -0.84560000
     H      2.30700000     -2.84320000     -0.97730000
     H     -0.95650000     -3.91430000      0.18850000
     H      1.82450000     -1.19670000     -1.41380000
     H      1.41200000     -2.60180000     -2.50220000
     H     -2.88390000     -0.51070000      2.99120000
     H     -2.69620000      1.10040000      3.38470000
     H     -1.50900000      1.44310000      1.18240000
