16
chgs=0 nmr=1 alpha=57.21 b3lypd3vdz=-362.8549711018 
     C      1.57950000      4.49420000     -1.45790000    0.1845    2.6868
     O      2.47210000      5.11220000     -0.91980000   -0.1903 -402.6874
     C      5.13490000      4.75780000      0.58520000    0.0211  167.8089
     C      4.42820000      3.44170000      0.90960000    0.0733   26.8999
     O      4.96590000      2.35460000      0.66000000   -0.3010  -73.6582
     N      3.18890000      3.51260000      1.46050000   -0.1468  153.9168
     C      2.37390000      2.32220000      1.61150000    0.0602  165.4953
     H      1.70330000      3.85730000     -2.34620000    0.0199   21.6631
     H      0.55720000      4.43690000     -1.05590000    0.0068   21.6573
     H      5.99190000      4.83530000      1.27870000    0.0438   29.5847
     H      4.47090000      5.61460000      0.77610000    0.0092   29.6247
     H      2.70330000      4.40390000      1.49810000    0.0838   27.1383
     H      2.62670000      1.62560000      0.80080000    0.0383   28.2346
     H      5.50070000      4.80480000     -0.45110000    0.0490   29.3341
     H      1.31330000      2.59870000      1.51820000    0.0102   29.6383
     H      2.56610000      1.80640000      2.56390000    0.0381   28.9969
