11
chgs=0 nmr=1 alpha=34.97 b3lypd3vdz=-210.265552631597 
     O      0.17140000     -2.23790000     -3.52280000   -0.2900  308.1594
     N      0.29000000     -2.47520000     -0.72790000   -0.2211  262.9606
     C      1.51630000     -2.25140000     -1.46470000    0.0641  145.9025
     C      1.36760000     -2.75080000     -2.94330000    0.1479  125.8027
     H     -0.55590000     -2.85860000     -3.27480000    0.1346   30.1137
     H     -0.46940000     -1.80640000     -0.84560000    0.0821   30.5692
     H      2.30700000     -2.84320000     -0.97730000   -0.0003   28.9385
     H      2.19480000     -2.32230000     -3.53340000    0.0023   28.1038
     H      0.13210000     -3.33170000     -0.23650000    0.0725   31.7755
     H      1.82450000     -1.19670000     -1.41380000    0.0170   28.5881
     H      1.40180000     -3.84800000     -3.01410000   -0.0091   28.3904
