17
chgs=0 nmr=1 alpha=58.6 b3lypd3vdz=-288.771988959223 
     C      4.42820000      3.44170000      0.90960000    0.1800   -4.2179
     O      4.96590000      2.35460000      0.66000000   -0.1967 -467.2350
     C      2.64120000     -0.80650000      2.18810000   -0.0655   58.7645
     C      2.12680000     -2.09980000      2.16000000   -0.0609   59.8782
     N      3.11920000     -0.50300000     -1.99710000   -0.2409  262.8195
     C      3.96600000      0.65520000     -1.66450000    0.0261  160.3223
     H      4.93670000      4.38870000      0.67620000    0.0222   21.4575
     H      3.42440000      3.49910000      1.35580000    0.0200   21.3973
     H      3.50920000     -0.57500000      1.56880000    0.0500   24.8642
     H      2.57640000     -2.86320000      1.52270000    0.0264   25.2298
     H      2.20230000     -0.02440000      2.82510000    0.0227   25.0435
     H      1.25750000     -2.35840000      2.78240000    0.0260   25.2568
     H      3.66780000     -1.30950000     -2.29190000    0.0720   31.6412
     H      3.89510000      0.83610000     -0.58100000    0.0278   28.0545
     H      2.24940000     -0.71260000     -1.55050000    0.0714   32.1143
     H      3.68100000      1.60630000     -2.13800000    0.0005   29.5228
     H      5.01370000      0.41680000     -1.90020000    0.0188   29.1262
