11
chgs=0 nmr=1 alpha=33.85 b3lypd3vdz=-210.236038912383 
     N      3.18890000      3.51260000      1.46050000   -0.2420  266.9715
     C      2.37390000      2.32220000      1.61150000    0.0504  161.9062
     C      1.94450000     -0.78610000     -1.39400000    0.1801   -5.5080
     O      1.25770000      0.07870000     -0.82990000   -0.1988 -470.9444
     H      2.70330000      4.40390000      1.49810000    0.0741   31.5861
     H      2.62670000      1.62560000      0.80080000    0.0105   28.5784
     H      4.10140000      3.46040000      1.05490000    0.0685   32.2417
     H      1.31330000      2.59870000      1.51820000    0.0200   28.7752
     H      2.56610000      1.80640000      2.56390000    0.0016   28.7118
     H      1.63630000     -1.84080000     -1.44490000    0.0191   21.3169
     H      2.90130000     -0.55550000     -1.88520000    0.0167   21.3057
