16
chgs=0 nmr=1 alpha=64.44 b3lypd3vdz=-325.738254081745 
     C      4.42820000      3.44170000      0.90960000    0.2046   35.8389
     O      4.96590000      2.35460000      0.66000000   -0.2919 -102.1673
     N      3.18890000      3.51260000      1.46050000   -0.1288  139.4200
     C      2.37390000      2.32220000      1.61150000    0.0839  143.7725
     C      2.64600000      1.59200000      2.95990000    0.0487  156.1655
     C      2.08100000      0.19180000      3.00120000   -0.1058   45.0424
     C      2.64120000     -0.80650000      2.18810000   -0.0061   58.1154
     H      2.70330000      4.40390000      1.49810000    0.0826   26.8280
     H      2.62670000      1.62560000      0.80080000    0.0343   27.6467
     H      3.74190000      1.55800000      3.06080000    0.0385   28.6089
     H      2.25480000      2.20950000      3.78430000   -0.0019   29.5543
     H      3.50920000     -0.57500000      1.56880000    0.0336   24.9054
     H      4.93670000      4.38870000      0.67620000   -0.0087   23.0688
     H      1.31330000      2.59870000      1.51820000    0.0103   28.7709
     H      1.22090000     -0.08240000      3.62970000   -0.0127   24.6056
     H      2.23470000     -1.82840000      2.16590000    0.0194   25.2542
