16
chgs=0 nmr=1 alpha=57.48 b3lypd3vdz=-362.867826969132 
     N      2.23970000      2.31020000     -2.25620000   -0.0721  168.0093
     C      3.96600000      0.65520000     -1.66450000   -0.0342  167.9407
     C      3.56570000      1.99100000     -2.32950000    0.0443   32.1074
     O      4.40780000      2.72380000     -2.83520000   -0.2555  -89.9407
     C      2.37390000      2.32220000      1.61150000   -0.0428  158.6282
     C      0.90310000      2.70560000      1.48210000    0.1169  -10.0981
     O      0.49730000      3.84920000      1.74780000   -0.2096 -410.3318
     H      1.62560000      1.68770000     -1.72520000    0.0929   27.3592
     H      3.89510000      0.83610000     -0.58100000    0.0557   29.4933
     H      1.90410000      3.20400000     -2.55380000    0.1005   27.7378
     H      3.33350000     -0.20980000     -1.91290000    0.0341   29.6433
     H      5.01370000      0.41680000     -1.90020000    0.0482   29.7690
     H      2.62670000      1.62560000      0.80080000    0.0141   29.2910
     H      2.99190000      3.22490000      1.49700000    0.0567   29.2662
     H      2.56610000      1.80640000      2.56390000    0.0607   29.3009
     H      0.24430000      1.88400000      1.16440000   -0.0100   21.0673
