9
chgs=0 nmr=1 alpha=31.5 b3lypd3vdz=-209.11470540624 
     C     -5.95950000     -0.75220000      0.59260000   -0.0118  168.5942
     C     -5.44150000     -1.47950000     -0.66470000    0.0468   32.0883
     N     -4.14050000     -1.27530000     -1.02540000   -0.0728  166.9444
     O     -6.22450000     -2.15670000     -1.31890000   -0.2650  -80.3558
     H     -6.64650000     -1.48990000      1.03030000    0.0511   29.6163
     H     -3.49920000     -0.77170000     -0.41380000    0.0921   27.1913
     H     -5.18710000     -0.50780000      1.33670000    0.0086   30.1157
     H     -6.50330000      0.16910000      0.33670000    0.0576   29.3385
     H     -3.73200000     -1.78860000     -1.78020000    0.0934   27.9166
