16
chgs=0 nmr=1 alpha=68.0 b3lypd3vdz=-234.412736167457 
     C      6.04520000     -0.70090000      1.09900000   -0.0601   59.6552
     C      6.26560000     -1.40060000      2.28170000   -0.0464   56.3322
     C      2.08100000      0.19180000      3.00120000   -0.0298   53.9697
     C      2.64120000     -0.80650000      2.18810000   -0.0117   50.8093
     C      0.98480000     -0.15760000      3.80220000    0.0025   70.9003
     C      2.12680000     -2.09980000      2.16000000   -0.0029   74.5598
     H      5.87840000      0.37770000      1.10230000    0.0327   25.2247
     H      6.27140000     -0.86200000      3.23210000    0.0303   25.2756
     H      6.03240000     -1.26230000      0.15310000    0.0313   25.1662
     H      6.42710000     -2.48870000      2.28190000    0.0321   24.9973
     H      3.50920000     -0.57500000      1.56880000   -0.0263   24.8090
     H      0.53070000      0.59650000      4.45220000    0.0144   26.2011
     H      2.57640000     -2.86320000      1.52270000    0.0121   26.2768
     H      2.49250000      1.21150000      2.97110000   -0.0197   24.7602
     H      0.57050000     -1.17650000      3.79170000    0.0254   23.5713
     H      1.25750000     -2.35840000      2.78240000    0.0161   24.1133
