13
chgs=0 nmr=1 alpha=48.12 b3lypd3vdz=-323.57532663205 
     C      1.51630000     -2.25140000     -1.46470000   -0.0449  158.1452
     C      1.94450000     -0.78610000     -1.39400000    0.1469  -14.0035
     O      1.25770000      0.07870000     -0.82990000   -0.2230 -350.8726
     N      0.09590000      1.69900000      1.09290000   -0.0707  156.4081
     C      0.90310000      2.70560000      1.48210000    0.1644   38.5338
     O      0.49730000      3.84920000      1.74780000   -0.3008  -90.4787
     H      2.30700000     -2.84320000     -0.97730000    0.0530   29.3652
     H      0.58470000     -2.42140000     -0.90500000    0.0469   29.3150
     H      1.41200000     -2.60180000     -2.50220000    0.0588   29.0671
     H      2.90130000     -0.55550000     -1.88520000    0.0166   21.2612
     H      0.50170000      0.84260000      0.71010000    0.0913   24.3812
     H     -0.90000000      1.78450000      1.06430000    0.0848   27.3809
     H      1.96370000      2.42910000      1.57540000   -0.0233   23.4924
