19
chgs=0 nmr=1 alpha=66.87 b3lypd3vdz=-348.00559790262 
     O      0.17140000     -2.23790000     -3.52280000   -0.3176  266.2370
     C      1.41510000     -4.27320000     -3.04150000   -0.0652  171.6990
     C      1.36760000     -2.75080000     -2.94330000    0.1249  133.3502
     C     -3.54700000     -2.02120000     -2.12210000   -0.0607  150.9030
     C     -2.54580000     -3.08320000     -1.64360000    0.1847  -23.9530
     O     -1.85310000     -3.71080000     -2.46200000   -0.2418 -330.0284
     C     -2.83870000     -1.09330000     -3.13790000   -0.0264  177.5097
     H     -0.55590000     -2.85860000     -3.27480000    0.1693   30.1061
     H      1.34630000     -4.57280000     -4.09850000    0.0225   30.0929
     H      2.34810000     -4.66960000     -2.61180000    0.0044   30.4996
     H      0.56830000     -4.72120000     -2.50170000    0.0254   29.8119
     H      2.19480000     -2.32230000     -3.53340000    0.0069   27.9083
     H      1.47190000     -2.40040000     -1.90580000   -0.0135   27.9008
     H     -4.37040000     -2.54620000     -2.62940000    0.0493   29.4471
     H     -2.49380000     -1.73900000     -3.96220000    0.0530   29.5414
     H     -3.99630000     -1.45650000     -1.29190000    0.0165   28.8929
     H     -2.43150000     -3.20220000     -0.55600000    0.0109   20.6955
     H     -1.97400000     -0.61410000     -2.65550000    0.0372   30.2479
     H     -3.51190000     -0.31800000     -3.53260000    0.0202   30.4413
