7
chgs=0 nmr=1 alpha=19.36 b3lypd3vdz=-95.785885817903 
     N      3.18890000      3.51260000      1.46050000   -0.2400  266.7433
     C      2.37390000      2.32220000      1.61150000    0.0527  162.5927
     H      2.70330000      4.40390000      1.49810000    0.0764   31.5457
     H      2.62670000      1.62560000      0.80080000    0.0090   28.6353
     H      4.10140000      3.46040000      1.05490000    0.0731   32.0967
     H      1.31330000      2.59870000      1.51820000    0.0183   28.9031
     H      2.56610000      1.80640000      2.56390000    0.0104   28.5265
