15
chgs=0 nmr=1 alpha=55.12 b3lypd3vdz=-287.68823914471 
     C     -1.36200000     -4.02470000      0.28750000    0.0101  167.4514
     C      0.07660000     -3.63300000     -0.06370000    0.0823   29.0218
     O      0.98870000     -4.40750000      0.25670000   -0.2968  -64.7602
     N      0.29000000     -2.47520000     -0.72790000   -0.1318  137.9251
     C      1.51630000     -2.25140000     -1.46470000    0.0492  155.6297
     C      1.36760000     -2.75080000     -2.94330000   -0.0303  171.9684
     H     -1.46800000     -3.96920000      1.37910000    0.0501   29.4867
     H     -1.43760000     -5.08370000     -0.00650000    0.0557   29.3242
     H     -0.46940000     -1.80640000     -0.84560000    0.0814   26.8616
     H      2.30700000     -2.84320000     -0.97730000    0.0465   26.9631
     H      2.19480000     -2.32230000     -3.53340000    0.0153   30.5114
     H     -2.15720000     -3.41840000     -0.17080000    0.0050   30.2192
     H      1.82450000     -1.19670000     -1.41380000    0.0113   29.0635
     H      0.44400000     -2.35480000     -3.39070000    0.0093   30.7509
     H      1.40180000     -3.84800000     -3.01410000    0.0426   29.8974
