16
chgs=0 nmr=1 alpha=65.1 b3lypd3vdz=-325.731373827006 
     C      5.96040000     -2.19040000     -2.23880000   -0.0208   62.0732
     C      1.94450000     -0.78610000     -1.39400000    0.1888   35.4417
     O      1.25770000      0.07870000     -0.82990000   -0.2916 -113.6840
     N      3.11920000     -0.50300000     -1.99710000   -0.1352  136.3961
     C      3.96600000      0.65520000     -1.66450000    0.1040  153.1515
     C      5.43980000      0.31980000     -1.99600000    0.0274  159.3632
     C      5.83470000     -1.03550000     -1.49250000   -0.0934   43.0163
     H      5.91250000     -2.32370000     -3.31810000    0.0197   25.4603
     H      3.66780000     -1.30950000     -2.29190000    0.0845   27.0456
     H      3.89510000      0.83610000     -0.58100000    0.0273   28.4536
     H      5.58910000      0.39330000     -3.08410000    0.0218   29.0450
     H      6.04570000      1.11050000     -1.53420000    0.0299   29.0116
     H      6.15540000     -3.04570000     -1.57510000    0.0254   25.6336
     H      1.63630000     -1.84080000     -1.44490000   -0.0191   23.3516
     H      3.68100000      1.60630000     -2.13800000    0.0333   28.3613
     H      5.98240000     -1.32830000     -0.44250000   -0.0021   24.7762
