14
chgs=0 nmr=1 alpha=52.48 b3lypd3vdz=-307.480630250713 
     C     -3.06370000     -0.92600000      3.11590000   -0.0593  158.4719
     C     -4.17810000     -1.39590000      2.16520000    0.1248   -7.6119
     O     -4.36040000     -2.59610000      1.96420000   -0.2086 -390.6793
     C      0.45840000     -1.45210000      3.78880000   -0.0735   91.3172
     C      1.01760000     -2.42980000      2.95410000    0.0369   35.8407
     O      0.45780000     -3.67340000      2.95140000   -0.1740  213.8088
     H     -2.29450000     -1.70630000      3.05990000    0.0707   28.9462
     H     -2.64250000      0.04720000      2.82370000    0.0235   29.4682
     H     -3.40980000     -0.74980000      4.14510000    0.0500   29.3630
     H     -4.78910000     -0.61280000      1.69260000   -0.0097   21.1800
     H     -0.38490000     -1.72720000      4.42550000    0.0274   26.3950
     H      0.82970000     -4.18290000      2.20160000    0.1606   28.2338
     H      0.87270000     -0.43320000      3.79930000    0.0193   26.7855
     H      1.88690000     -2.17120000      2.33170000    0.0118   24.0516
