13
chgs=0 nmr=1 alpha=45.09 b3lypd3vdz=-323.542895752258 
     N     -4.14050000     -1.27530000     -1.02540000   -0.1902  253.9300
     C     -3.54700000     -2.02120000     -2.12210000   -0.0320  126.1106
     C     -2.54580000     -3.08320000     -1.64360000    0.2050  -29.8597
     O     -1.85310000     -3.71080000     -2.46200000   -0.2293 -391.4967
     C     -2.83870000     -1.09330000     -3.13790000    0.1965  121.2171
     O     -1.71160000     -0.46870000     -2.50910000   -0.2984  316.1527
     H     -3.49920000     -0.77170000     -0.41380000    0.0900   29.4924
     H     -4.37040000     -2.54620000     -2.62940000    0.0200   28.8661
     H     -2.49380000     -1.73900000     -3.96220000    0.0104   26.9601
     H     -0.90150000     -0.86780000     -2.89010000    0.1556   30.7557
     H     -5.09330000     -1.42480000     -0.76120000    0.0800   30.6499
     H     -2.43150000     -3.20220000     -0.55600000   -0.0208   20.6614
     H     -3.51190000     -0.31800000     -3.53260000    0.0132   27.8441
