14
chgs=0 nmr=1 alpha=55.72 b3lypd3vdz=-361.668152719481 
     N      2.23970000      2.31020000     -2.25620000   -0.1604  158.0053
     C      1.75110000      3.61130000     -2.68940000    0.1076  145.9847
     C      1.57950000      4.49420000     -1.45790000    0.1354    2.1051
     O      2.47210000      5.11220000     -0.91980000   -0.1703 -349.8172
     C      3.96600000      0.65520000     -1.66450000   -0.0121  168.5020
     C      3.56570000      1.99100000     -2.32950000    0.0932   32.1078
     O      4.40780000      2.72380000     -2.83520000   -0.2590  -83.4890
     H      1.62560000      1.68770000     -1.72520000    0.0864   27.0363
     H      2.50890000      4.05600000     -3.34560000    0.0593   26.9058
     H      0.79420000      3.49920000     -3.21900000    0.0166   28.5202
     H      3.89510000      0.83610000     -0.58100000    0.0485   29.7354
     H      0.55720000      4.43690000     -1.05590000   -0.0267   21.5496
     H      3.33350000     -0.20980000     -1.91290000    0.0325   29.7408
     H      5.01370000      0.41680000     -1.90020000    0.0492   29.6704
