16
chgs=0 nmr=1 alpha=60.94 b3lypd3vdz=-267.73714893154 
     C      5.96040000     -2.19040000     -2.23880000   -0.0138   55.1078
     N      6.20610000     -3.26820000     -1.40250000   -0.0710  200.7718
     N      3.11920000     -0.50300000     -1.99710000   -0.2180  244.5971
     C      3.96600000      0.65520000     -1.66450000    0.0978  152.2841
     C      5.43980000      0.31980000     -1.99600000    0.0455  161.9731
     C      5.83470000     -1.03550000     -1.49250000   -0.0579   87.2618
     H      5.91250000     -2.32370000     -3.31810000   -0.0015   25.0849
     H      6.40150000     -4.21130000     -1.70730000    0.0828   29.2339
     H      3.66780000     -1.30950000     -2.29190000    0.0691   30.9364
     H      3.89510000      0.83610000     -0.58100000   -0.0140   28.9126
     H      5.58910000      0.39330000     -3.08410000    0.0032   29.5114
     H      6.04570000      1.11050000     -1.53420000    0.0034   29.3641
     H      6.24290000     -2.94790000     -0.45590000    0.0734   27.8210
     H      2.24940000     -0.71260000     -1.55050000    0.0642   31.8111
     H      3.68100000      1.60630000     -2.13800000   -0.0072   28.9778
     H      5.98240000     -1.32830000     -0.44250000   -0.0560   26.5839
