9
chgs=0 nmr=1 alpha=31.27 b3lypd3vdz=-209.062433681988 
     C     -5.95950000     -0.75220000      0.59260000    0.0589  135.8730
     C     -5.44150000     -1.47950000     -0.66470000    0.1402  -17.7769
     O     -6.22450000     -2.15670000     -1.31890000   -0.2072 -374.0263
     N     -4.93360000     -0.42760000      1.58080000   -0.2241  260.1672
     H     -6.64650000     -1.48990000      1.03030000    0.0391   28.1024
     H     -4.60560000      0.53540000      1.61300000    0.0853   30.8703
     H     -6.50330000      0.16910000      0.33670000    0.0502   28.1106
     H     -4.39340000     -1.31500000     -0.95530000   -0.0229   21.1898
     H     -4.37810000     -1.13950000      2.01050000    0.0806   31.0284
