11
chgs=0 nmr=1 alpha=48.13 b3lypd3vdz=-231.078267330604 
     C      0.98480000     -0.15760000      3.80220000    0.0183   67.3686
     C      2.12680000     -2.09980000      2.16000000   -0.0475  102.5099
     C      0.45840000     -1.45210000      3.78880000    0.0017   57.6636
     C      1.01760000     -2.42980000      2.95410000    0.0129   29.5486
     O      0.45780000     -3.67340000      2.95140000   -0.1927  211.5600
     H      0.53070000      0.59650000      4.45220000    0.0213   26.0562
     H      2.57640000     -2.86320000      1.52270000   -0.0123   27.5309
     H     -0.38490000     -1.72720000      4.42550000   -0.0113   25.1897
     H      0.82970000     -4.18290000      2.20160000    0.1588   27.5010
     H      1.84490000      0.11660000      3.17370000    0.0282   24.0673
     H      2.53330000     -1.07790000      2.18220000    0.0227   25.1920
