10
chgs=0 nmr=1 alpha=36.37 b3lypd3vdz=-193.039263687149 
     C      2.64600000      1.59200000      2.95990000   -0.0402  179.4674
     C      2.37390000      2.32220000      1.61150000   -0.0370  149.3847
     C      0.90310000      2.70560000      1.48210000    0.1558  -14.7873
     O      0.49730000      3.84920000      1.74780000   -0.2186 -382.5439
     H      3.74190000      1.55800000      3.06080000    0.0326   30.0829
     H      2.25480000      2.20950000      3.78430000    0.0397   30.4717
     H      2.62670000      1.62560000      0.80080000    0.0162   29.1798
     H      2.23450000      0.57230000      2.99000000    0.0326   30.0846
     H      2.99190000      3.22490000      1.49700000    0.0296   29.3697
     H      0.24430000      1.88400000      1.16440000   -0.0108   21.1085
