13
b3lypd3vdz=-323.568869071056 
     C     -1.91270000      0.47570000      1.51600000
     O     -1.83470000     -0.51030000      0.76680000
     C     -5.95950000     -0.75220000      0.59260000
     C     -5.44150000     -1.47950000     -0.66470000
     N     -4.14050000     -1.27530000     -1.02540000
     O     -6.22450000     -2.15670000     -1.31890000
     H     -1.50900000      1.44310000      1.18240000
     H     -2.39240000      0.39280000      2.50240000
     H     -6.64650000     -1.48990000      1.03030000
     H     -3.49920000     -0.77170000     -0.41380000
     H     -5.18710000     -0.50780000      1.33670000
     H     -6.50330000      0.16910000      0.33670000
     H     -3.73200000     -1.78860000     -1.78020000
