14
chgs=0 nmr=1 alpha=44.37 b3lypd3vdz=-344.552456876836 
     C     -1.91270000      0.47570000      1.51600000    0.1746   -4.8789
     O     -1.83470000     -0.51030000      0.76680000   -0.2009 -511.5997
     C     -2.83870000     -1.09330000     -3.13790000    0.1007  142.1323
     O     -1.71160000     -0.46870000     -2.50910000   -0.2848  326.7544
     C      1.94450000     -0.78610000     -1.39400000    0.1717   -3.7501
     O      1.25770000      0.07870000     -0.82990000   -0.1934 -496.8214
     H     -1.50900000      1.44310000      1.18240000    0.0192   21.0164
     H     -2.39240000      0.39280000      2.50240000    0.0062   21.0600
     H     -2.49380000     -1.73900000     -3.96220000   -0.0005   28.0083
     H     -0.90150000     -0.86780000     -2.89010000    0.1362   32.1003
     H     -3.34220000     -1.75290000     -2.41580000    0.0219   27.7019
     H     -3.51190000     -0.31800000     -3.53260000    0.0222   27.9702
     H      1.63630000     -1.84080000     -1.44490000    0.0143   21.3637
     H      2.90130000     -0.55550000     -1.88520000    0.0124   21.3389
