16
chgs=0 nmr=1 alpha=60.76 b3lypd3vdz=-271.520363639374 
     C      4.42820000      3.44170000      0.90960000    0.1860   -6.7549
     O      4.96590000      2.35460000      0.66000000   -0.1926 -462.8953
     C      2.64120000     -0.80650000      2.18810000   -0.0579   53.9414
     C      2.12680000     -2.09980000      2.16000000   -0.0635   62.2610
     C      6.04520000     -0.70090000      1.09900000   -0.0711   55.8900
     C      6.26560000     -1.40060000      2.28170000   -0.0552   58.8332
     H      4.93670000      4.38870000      0.67620000    0.0224   21.2930
     H      3.42440000      3.49910000      1.35580000    0.0244   21.3025
     H      3.50920000     -0.57500000      1.56880000    0.0418   24.7419
     H      2.57640000     -2.86320000      1.52270000    0.0219   25.3814
     H      2.20230000     -0.02440000      2.82510000    0.0145   25.0472
     H      1.25750000     -2.35840000      2.78240000    0.0206   25.4218
     H      5.87840000      0.37770000      1.10230000    0.0473   23.6139
     H      6.27140000     -0.86200000      3.23210000    0.0199   25.4134
     H      6.03240000     -1.26230000      0.15310000    0.0190   24.8805
     H      6.42710000     -2.48870000      2.28190000    0.0224   25.1180
