16
chgs=0 nmr=1 alpha=67.71 b3lypd3vdz=-325.685843860672 
     C      6.02880000     -1.42020000     -0.11300000   -0.0411   40.4059
     C      6.25690000     -2.82580000     -0.09490000   -0.0166   60.8784
     C      6.04520000     -0.70090000      1.09900000    0.0007   55.3611
     C      6.26560000     -1.40060000      2.28170000   -0.0058   75.8566
     C      4.42820000      3.44170000      0.90960000    0.1792   36.3781
     O      4.96590000      2.35460000      0.66000000   -0.2653  -96.8343
     N      3.18890000      3.51260000      1.46050000   -0.0704  162.0015
     H      5.87840000      0.37770000      1.10230000   -0.0057   23.8383
     H      6.27140000     -0.86200000      3.23210000    0.0082   26.3386
     H      5.88110000     -1.12740000     -1.16300000   -0.0227   24.0188
     H      6.21640000     -3.17810000     -1.13620000    0.0065   25.4110
     H      6.42920000     -3.37890000      0.84020000    0.0164   22.8474
     H      6.42710000     -2.48870000      2.28190000    0.0124   23.7596
     H      2.70330000      4.40390000      1.49810000    0.0978   27.3647
     H      4.93670000      4.38870000      0.67620000    0.0037   23.2243
     H      2.62700000      2.69190000      1.56460000    0.1027   27.4082
