15
chgs=0 nmr=1 alpha=45.09 b3lypd3vdz=-175.552809522516 
     N      3.18890000      3.51260000      1.46050000   -0.2396  267.8141
     C      2.37390000      2.32220000      1.61150000    0.0408  162.4595
     C      3.96600000      0.65520000     -1.66450000   -0.0802  179.8398
     C      5.43980000      0.31980000     -1.99600000   -0.0582  180.7508
     H      2.70330000      4.40390000      1.49810000    0.0770   31.5604
     H      2.62670000      1.62560000      0.80080000    0.0175   28.3929
     H      4.10140000      3.46040000      1.05490000    0.0724   32.0490
     H      1.31330000      2.59870000      1.51820000    0.0181   28.9694
     H      2.56610000      1.80640000      2.56390000    0.0096   28.6187
     H      3.89510000      0.83610000     -0.58100000    0.0369   30.0292
     H      5.58910000      0.39330000     -3.08410000    0.0187   30.3260
     H      6.04570000      1.11050000     -1.53420000    0.0161   30.3372
     H      3.33350000     -0.20980000     -1.91290000    0.0238   30.1446
     H      3.68100000      1.60630000     -2.13800000    0.0226   30.2125
     H      5.72960000     -0.67490000     -1.62650000    0.0244   30.3451
