14
chgs=0 nmr=1 alpha=50.47 b3lypd3vdz=-307.494881248305 
     C     -3.36750000      2.38270000     -0.31390000    0.1805   -1.7717
     O     -4.04740000      2.27800000      0.70320000   -0.1840 -435.4075
     C     -6.72760000      0.54920000      0.23110000   -0.0544  183.4134
     C     -7.17340000      0.66390000     -1.24020000   -0.0359  152.9227
     C     -7.71910000      2.04180000     -1.51110000    0.1454    0.2566
     O     -8.86560000      2.36260000     -1.68260000   -0.1849 -311.5881
     H     -2.28390000      2.19630000     -0.34580000    0.0251   21.3443
     H     -3.79600000      2.66310000     -1.28740000    0.0148   21.3369
     H     -7.60780000      0.64120000      0.88650000    0.0318   30.8407
     H     -6.07680000      1.40620000      0.44970000    0.0387   29.2149
     H     -6.30940000      0.50900000     -1.90500000    0.0138   29.6764
     H     -7.93760000     -0.07880000     -1.49670000    0.0184   29.6985
     H     -6.18380000     -0.37210000      0.48700000    0.0242   30.6682
     H     -6.91510000      2.79240000     -1.52410000   -0.0334   21.8292
