18
chgs=0 nmr=1 alpha=68.97 b3lypd3vdz=-235.643514677151 
     C      2.64120000     -0.80650000      2.18810000   -0.0650   59.7007
     C      2.12680000     -2.09980000      2.16000000   -0.0565   59.3388
     C      5.96040000     -2.19040000     -2.23880000   -0.0158   66.8058
     C      3.96600000      0.65520000     -1.66450000   -0.0245  171.5236
     C      5.43980000      0.31980000     -1.99600000    0.0276  162.3876
     C      5.83470000     -1.03550000     -1.49250000   -0.0847   40.7070
     H      3.50920000     -0.57500000      1.56880000    0.0359   25.2549
     H      2.57640000     -2.86320000      1.52270000    0.0281   25.2280
     H      2.20230000     -0.02440000      2.82510000    0.0278   25.1203
     H      1.25750000     -2.35840000      2.78240000    0.0285   25.2272
     H      5.91250000     -2.32370000     -3.31810000    0.0067   25.6402
     H      3.89510000      0.83610000     -0.58100000    0.0242   30.2456
     H      5.58910000      0.39330000     -3.08410000    0.0088   29.2219
     H      6.04570000      1.11050000     -1.53420000    0.0138   29.3654
     H      6.15540000     -3.04570000     -1.57510000    0.0119   25.9937
     H      3.33350000     -0.20980000     -1.91290000    0.0290   30.4525
     H      3.68100000      1.60630000     -2.13800000    0.0170   30.0592
     H      5.98240000     -1.32830000     -0.44250000   -0.0127   24.6025
