23
chgs=0 nmr=1 alpha=82.98 b3lypd3vdz=-276.121424948307 
     C      2.64120000     -0.80650000      2.18810000   -0.0679   58.0905
     C      2.12680000     -2.09980000      2.16000000   -0.0583   59.6976
     C      6.02880000     -1.42020000     -0.11300000   -0.0797   57.0625
     C      6.04520000     -0.70090000      1.09900000   -0.0411   60.1366
     C      1.41510000     -4.27320000     -3.04150000   -0.0178  173.2354
     C      1.51630000     -2.25140000     -1.46470000   -0.0326  169.2699
     C      1.36760000     -2.75080000     -2.94330000   -0.0645  169.5590
     H      3.50920000     -0.57500000      1.56880000    0.0355   25.0707
     H      2.57640000     -2.86320000      1.52270000    0.0297   25.3453
     H      2.20230000     -0.02440000      2.82510000    0.0223   25.2421
     H      1.25750000     -2.35840000      2.78240000    0.0244   25.3077
     H      5.87840000      0.37770000      1.10230000    0.0393   25.1384
     H      5.88110000     -1.12740000     -1.16300000    0.0323   24.8358
     H      6.20500000     -2.50590000     -0.09900000    0.0268   25.3985
     H      6.21940000     -1.25390000      2.03380000    0.0418   24.8129
     H      1.34630000     -4.57280000     -4.09850000    0.0119   30.1895
     H      2.34810000     -4.66960000     -2.61180000    0.0166   30.6115
     H      0.56830000     -4.72120000     -2.50170000    0.0161   30.4750
     H      2.30700000     -2.84320000     -0.97730000    0.0155   30.7757
     H      2.19480000     -2.32230000     -3.53340000    0.0046   30.0762
     H      0.58470000     -2.42140000     -0.90500000    0.0210   30.4003
     H      1.82450000     -1.19670000     -1.41380000    0.0174   30.1957
     H      0.44400000     -2.35480000     -3.39070000    0.0067   30.1508
