18
chgs=0 nmr=1 alpha=80.53 b3lypd3vdz=-289.774201107141 
     N      3.18890000      3.51260000      1.46050000   -0.2065  248.8006
     C      2.37390000      2.32220000      1.61150000    0.0655  145.7294
     C      2.64600000      1.59200000      2.95990000    0.0819  142.9611
     C      2.08100000      0.19180000      3.00120000   -0.0605   53.8508
     C      0.98480000     -0.15760000      3.80220000    0.0322   60.0622
     C      0.45840000     -1.45210000      3.78880000   -0.0258   52.8262
     C      1.01760000     -2.42980000      2.95410000   -0.0021   72.2396
     H      2.70330000      4.40390000      1.49810000    0.0780   30.7445
     H      2.62670000      1.62560000      0.80080000    0.0004   28.5342
     H      3.74190000      1.55800000      3.06080000   -0.0007   29.4483
     H      2.25480000      2.20950000      3.78430000   -0.0076   29.0341
     H      0.53070000      0.59650000      4.45220000   -0.0350   25.4118
     H     -0.38490000     -1.72720000      4.42550000   -0.0247   25.0849
     H      4.10140000      3.46040000      1.05490000    0.0739   31.3509
     H      1.31330000      2.59870000      1.51820000    0.0148   28.9532
     H      2.51990000     -0.59030000      2.36420000   -0.0150   23.3121
     H      1.88690000     -2.17120000      2.33170000    0.0198   23.8999
     H      0.56610000     -3.43290000      2.95190000    0.0115   26.0687
