18
chgs=0 nmr=1 alpha=69.74 b3lypd3vdz=-235.641540695922 
     C      2.08100000      0.19180000      3.00120000   -0.0574   57.3231
     C      2.64120000     -0.80650000      2.18810000   -0.0699   55.7894
     C      5.96040000     -2.19040000     -2.23880000   -0.0157   66.8040
     C      3.96600000      0.65520000     -1.66450000   -0.0244  171.5654
     C      5.43980000      0.31980000     -1.99600000    0.0276  162.2951
     C      5.83470000     -1.03550000     -1.49250000   -0.0846   40.7742
     H      3.50920000     -0.57500000      1.56880000    0.0358   25.1500
     H      2.49250000      1.21150000      2.97110000    0.0303   24.8960
     H      1.22090000     -0.08240000      3.62970000    0.0308   25.0012
     H      2.23470000     -1.82840000      2.16590000    0.0299   25.0126
     H      5.91250000     -2.32370000     -3.31810000    0.0066   25.6561
     H      3.89510000      0.83610000     -0.58100000    0.0242   30.1965
     H      5.58910000      0.39330000     -3.08410000    0.0087   29.2229
     H      6.04570000      1.11050000     -1.53420000    0.0136   29.3544
     H      6.15540000     -3.04570000     -1.57510000    0.0120   26.0257
     H      3.33350000     -0.20980000     -1.91290000    0.0282   30.4913
     H      3.68100000      1.60630000     -2.13800000    0.0171   30.0473
     H      5.98240000     -1.32830000     -0.44250000   -0.0128   24.6418
