12
chgs=0 nmr=1 alpha=43.0 b3lypd3vdz=-248.356164632629 
     N      3.18890000      3.51260000      1.46050000   -0.1811  248.8412
     C      2.37390000      2.32220000      1.61150000   -0.0472  132.5752
     C      0.90310000      2.70560000      1.48210000    0.2107  -16.1023
     O      0.49730000      3.84920000      1.74780000   -0.2211 -330.6278
     C      2.64600000      1.59200000      2.95990000    0.0334  165.1575
     H      2.70330000      4.40390000      1.49810000    0.0837   29.4319
     H      2.62670000      1.62560000      0.80080000   -0.0055   27.8294
     H      3.74190000      1.55800000      3.06080000    0.0204   30.2321
     H      2.25480000      2.20950000      3.78430000    0.0251   30.3697
     H      4.10140000      3.46040000      1.05490000    0.0755   31.7177
     H      0.24430000      1.88400000      1.16440000   -0.0044   21.0380
     H      2.23450000      0.57230000      2.99000000    0.0106   30.0618
