17
chgs=0 nmr=1 alpha=53.39 b3lypd3vdz=-325.942446104728 
     C     -2.83870000     -1.09330000     -3.13790000    0.0964  144.1395
     O     -1.71160000     -0.46870000     -2.50910000   -0.3149  332.8720
     O      0.17140000     -2.23790000     -3.52280000   -0.2882  301.9032
     N      0.29000000     -2.47520000     -0.72790000   -0.2283  261.4042
     C      1.51630000     -2.25140000     -1.46470000    0.0568  146.1044
     C      1.36760000     -2.75080000     -2.94330000    0.1483  125.6924
     H     -2.49380000     -1.73900000     -3.96220000    0.0032   28.2051
     H     -0.90150000     -0.86780000     -2.89010000    0.1453   28.3635
     H     -3.34220000     -1.75290000     -2.41580000    0.0091   28.0695
     H     -3.51190000     -0.31800000     -3.53260000    0.0277   27.8805
     H     -0.55590000     -2.85860000     -3.27480000    0.1526   29.6566
     H     -0.46940000     -1.80640000     -0.84560000    0.0770   30.0946
     H      2.30700000     -2.84320000     -0.97730000    0.0050   28.8711
     H      2.19480000     -2.32230000     -3.53340000    0.0097   28.0682
     H      0.13210000     -3.33170000     -0.23650000    0.0726   31.8158
     H      1.82450000     -1.19670000     -1.41380000    0.0248   28.5247
     H      1.40180000     -3.84800000     -3.01410000    0.0029   28.4263
