16
chgs=0 nmr=1 alpha=59.27 b3lypd3vdz=-362.854791984244 
     C      1.94450000     -0.78610000     -1.39400000    0.1993  -10.5709
     O      1.25770000      0.07870000     -0.82990000   -0.2055 -425.5359
     C      2.37390000      2.32220000      1.61150000   -0.0028  169.4462
     C      0.90310000      2.70560000      1.48210000    0.0724   29.5511
     O      0.49730000      3.84920000      1.74780000   -0.3057  -64.5558
     N      0.09590000      1.69900000      1.09290000   -0.1488  150.4844
     C     -1.35040000      1.82310000      1.05140000    0.0680  165.8838
     H      1.63630000     -1.84080000     -1.44490000    0.0345   21.2884
     H      2.90130000     -0.55550000     -1.88520000    0.0365   21.3176
     H      2.62670000      1.62560000      0.80080000    0.0084   30.1914
     H      0.50170000      0.84260000      0.71010000    0.0809   24.2286
     H     -1.61820000      2.64140000      1.72800000    0.0456   27.6086
     H      2.99190000      3.22490000      1.49700000    0.0355   29.9391
     H      2.56610000      1.80640000      2.56390000    0.0425   29.7061
     H     -1.75410000      0.85570000      1.38500000    0.0141   29.1336
     H     -1.73350000      2.04110000      0.04360000    0.0251   28.9322
