18
chgs=0 nmr=1 alpha=60.32 b3lypd3vdz=-364.057433995913 
     C     -5.95950000     -0.75220000      0.59260000    0.1038  147.3585
     C     -6.72760000      0.54920000      0.23110000   -0.0645  164.4088
     C     -7.17340000      0.66390000     -1.24020000   -0.0366  176.5859
     N     -4.93360000     -0.42760000      1.58080000   -0.2351  246.5978
     C     -3.36750000      2.38270000     -0.31390000    0.2474   33.4947
     O     -4.04740000      2.27800000      0.70320000   -0.2477 -105.6808
     O     -3.88670000      2.72240000     -1.49350000   -0.1550  123.6108
     H     -6.64650000     -1.48990000      1.03030000   -0.0056   28.4037
     H     -7.60780000      0.64120000      0.88650000    0.0095   29.6265
     H     -6.07680000      1.40620000      0.44970000    0.0050   29.5294
     H     -6.30940000      0.50900000     -1.90500000    0.0110   30.7261
     H     -7.93760000     -0.07880000     -1.49670000    0.0225   30.5497
     H     -4.60560000      0.53540000      1.61300000    0.0825   30.6655
     H     -5.59000000     -1.27100000     -0.30420000   -0.0261   29.0615
     H     -7.57180000      1.66990000     -1.43800000    0.0038   30.5618
     H     -4.37810000     -1.13950000      2.01050000    0.0598   32.3476
     H     -4.86380000      2.83350000     -1.40270000    0.1812   24.9040
     H     -2.28390000      2.19630000     -0.34580000    0.0440   23.5241
