15
chgs=0 nmr=1 alpha=52.57 b3lypd3vdz=-378.935603076312 
     N      2.23970000      2.31020000     -2.25620000   -0.0756  171.6647
     C      3.96600000      0.65520000     -1.66450000   -0.0145  167.2810
     C      3.56570000      1.99100000     -2.32950000    0.0423   30.3916
     O      4.40780000      2.72380000     -2.83520000   -0.2662  -85.2399
     C      4.42820000      3.44170000      0.90960000    0.1870   36.6352
     O      4.96590000      2.35460000      0.66000000   -0.2773 -104.0030
     N      3.18890000      3.51260000      1.46050000   -0.0733  164.1340
     H      1.62560000      1.68770000     -1.72520000    0.0872   27.4192
     H      3.89510000      0.83610000     -0.58100000    0.0462   28.5577
     H      1.90410000      3.20400000     -2.55380000    0.0864   28.0054
     H      3.33350000     -0.20980000     -1.91290000    0.0132   29.9913
     H      5.01370000      0.41680000     -1.90020000    0.0420   29.8615
     H      2.70330000      4.40390000      1.49810000    0.0957   27.4855
     H      4.93670000      4.38870000      0.67620000    0.0125   23.2691
     H      2.62700000      2.69190000      1.56460000    0.0943   27.5947
