12
chgs=0 nmr=1 alpha=43.2 b3lypd3vdz=-248.399081039331 
     C      5.13490000      4.75780000      0.58520000    0.0102  169.5509
     C      4.42820000      3.44170000      0.90960000    0.0748   28.2352
     O      4.96590000      2.35460000      0.66000000   -0.2944  -77.7462
     N      3.18890000      3.51260000      1.46050000   -0.1487  155.0483
     C      2.37390000      2.32220000      1.61150000    0.0623  164.5818
     H      5.99190000      4.83530000      1.27870000    0.0565   29.4173
     H      4.47090000      5.61460000      0.77610000    0.0011   30.3563
     H      2.70330000      4.40390000      1.49810000    0.0826   27.0684
     H      2.62670000      1.62560000      0.80080000    0.0449   27.9438
     H      5.50070000      4.80480000     -0.45110000    0.0543   29.5431
     H      1.31330000      2.59870000      1.51820000    0.0182   29.2871
     H      2.56610000      1.80640000      2.56390000    0.0381   28.9203
