16
chgs=0 nmr=1 alpha=57.69 b3lypd3vdz=-362.875545055967 
     C     -3.54700000     -2.02120000     -2.12210000    0.0070  149.9396
     C     -2.54580000     -3.08320000     -1.64360000    0.1137   25.6241
     O     -1.85310000     -3.71080000     -2.46200000   -0.3073  -53.3389
     C     -2.83870000     -1.09330000     -3.13790000    0.1446  129.3288
     O     -1.71160000     -0.46870000     -2.50910000   -0.2962  306.2895
     N     -2.40610000     -3.22870000     -0.31420000   -0.1274  154.0706
     C     -1.36200000     -4.02470000      0.28750000    0.0707  165.6830
     H     -4.37040000     -2.54620000     -2.62940000    0.0260   29.7795
     H     -2.49380000     -1.73900000     -3.96220000    0.0250   26.9842
     H     -0.90150000     -0.86780000     -2.89010000    0.1551   30.4611
     H     -3.05840000     -2.77050000      0.31520000    0.0879   26.9259
     H     -1.46800000     -3.96920000      1.37910000    0.0151   29.3493
     H     -1.43760000     -5.08370000     -0.00650000    0.0367   28.4232
     H     -3.99630000     -1.45650000     -1.29190000   -0.0012   29.6549
     H     -3.51190000     -0.31800000     -3.53260000    0.0111   27.7925
     H     -0.32890000     -3.74340000      0.03530000    0.0390   28.6802
