9
chgs=0 nmr=1 alpha=28.09 b3lypd3vdz=-154.95129456176 
     C     -3.54700000     -2.02120000     -2.12210000   -0.0260  169.6733
     C     -2.83870000     -1.09330000     -3.13790000    0.0988  130.8832
     O     -1.71160000     -0.46870000     -2.50910000   -0.2869  298.7725
     H     -4.37040000     -2.54620000     -2.62940000    0.0040   30.5996
     H     -2.49380000     -1.73900000     -3.96220000    0.0020   27.7258
     H     -0.90150000     -0.86780000     -2.89010000    0.1440   30.8812
     H     -3.99630000     -1.45650000     -1.29190000    0.0301   29.9211
     H     -2.83000000     -2.78180000     -1.77940000    0.0157   30.2368
     H     -3.51190000     -0.31800000     -3.53260000    0.0182   27.6573
