5
chgs=0 nmr=1 alpha=13.43 b3lypd3vdz=-40.482250652547 
     C     -3.77040000     -0.02030000     -3.68410000   -0.1266  196.3498
     H     -3.25600000      0.55400000     -4.46900000    0.0302   31.0558
     H     -4.68470000     -0.46680000     -4.10730000    0.0323   30.9827
     H     -4.05240000      0.68150000     -2.88650000    0.0305   31.0707
     H     -3.09720000     -0.79560000     -3.28940000    0.0336   30.9963
