12
chgs=0 nmr=1 alpha=45.53 b3lypd3vdz=-157.067547415587 
     C      2.64120000     -0.80650000      2.18810000   -0.0561   54.4173
     C      2.12680000     -2.09980000      2.16000000   -0.0615   61.8421
     C      6.04520000     -0.70090000      1.09900000   -0.0613   59.4978
     C      6.26560000     -1.40060000      2.28170000   -0.0457   56.3540
     H      3.50920000     -0.57500000      1.56880000    0.0318   24.9889
     H      2.57640000     -2.86320000      1.52270000    0.0221   25.3901
     H      2.20230000     -0.02440000      2.82510000    0.0218   25.0292
     H      1.25750000     -2.35840000      2.78240000    0.0244   25.3773
     H      5.87840000      0.37770000      1.10230000    0.0334   25.1849
     H      6.27140000     -0.86200000      3.23210000    0.0294   25.2558
     H      6.03240000     -1.26230000      0.15310000    0.0306   25.1267
     H      6.42710000     -2.48870000      2.28190000    0.0313   24.9724
