10
chgs=0 nmr=1 alpha=44.57 b3lypd3vdz=-210.057274261454 
     C      5.96040000     -2.19040000     -2.23880000    0.0578   78.7512
     C      6.02880000     -1.42020000     -0.11300000   -0.0332   73.5311
     N      6.20610000     -3.26820000     -1.40250000   -0.0501  111.9986
     C      6.25690000     -2.82580000     -0.09490000    0.0329   69.8162
     C      5.83470000     -1.03550000     -1.49250000   -0.0164   84.0668
     H      5.91250000     -2.32370000     -3.31810000   -0.0117   24.9689
     H      6.40150000     -4.21130000     -1.70730000    0.0875   24.1616
     H      6.04160000     -0.85880000      0.83290000   -0.0367   24.6570
     H      6.42920000     -3.37890000      0.84020000   -0.0006   24.0238
     H      5.54490000     -0.04080000     -1.86200000   -0.0295   24.8952
