15
chgs=0 nmr=1 alpha=54.95 b3lypd3vdz=-287.69095084428 
     C      5.13490000      4.75780000      0.58520000    0.0140  169.3680
     C      4.42820000      3.44170000      0.90960000    0.0846   28.1319
     O      4.96590000      2.35460000      0.66000000   -0.2970  -72.7084
     N      3.18890000      3.51260000      1.46050000   -0.1307  142.0999
     C      2.37390000      2.32220000      1.61150000    0.0461  153.2614
     C      2.64600000      1.59200000      2.95990000   -0.0215  172.9167
     H      5.99190000      4.83530000      1.27870000    0.0565   29.3643
     H      4.47090000      5.61460000      0.77610000    0.0019   30.3277
     H      2.70330000      4.40390000      1.49810000    0.0805   26.6336
     H      2.62670000      1.62560000      0.80080000    0.0339   27.6320
     H      3.74190000      1.55800000      3.06080000    0.0377   29.9690
     H      2.25480000      2.20950000      3.78430000    0.0114   30.4506
     H      5.50070000      4.80480000     -0.45110000    0.0547   29.5031
     H      1.31330000      2.59870000      1.51820000    0.0068   29.0673
     H      2.23450000      0.57230000      2.99000000    0.0211   30.4346
