18
chgs=0 nmr=1 alpha=70.55 b3lypd3vdz=-235.644847610086 
     C      3.96600000      0.65520000     -1.66450000   -0.0667  180.2869
     C      5.43980000      0.31980000     -1.99600000   -0.0650  180.8750
     C      2.64120000     -0.80650000      2.18810000   -0.0004   73.1597
     C      2.12680000     -2.09980000      2.16000000   -0.0179   55.9755
     C      0.45840000     -1.45210000      3.78880000    0.0045   68.7962
     C      1.01760000     -2.42980000      2.95410000   -0.0333   52.7546
     H      3.89510000      0.83610000     -0.58100000    0.0225   30.3759
     H      5.58910000      0.39330000     -3.08410000    0.0208   30.3391
     H      6.04570000      1.11050000     -1.53420000    0.0184   30.3322
     H      3.33350000     -0.20980000     -1.91290000    0.0250   30.2136
     H      3.68100000      1.60630000     -2.13800000    0.0214   30.3054
     H      5.72960000     -0.67490000     -1.62650000    0.0231   30.3766
     H      3.50920000     -0.57500000      1.56880000    0.0237   26.1706
     H      2.57640000     -2.86320000      1.52270000   -0.0200   25.0565
     H     -0.38490000     -1.72720000      4.42550000    0.0153   25.9941
     H      2.20230000     -0.02440000      2.82510000    0.0223   23.7435
     H      0.87270000     -0.43320000      3.79930000    0.0227   23.5568
     H      0.56610000     -3.43290000      2.95190000   -0.0165   24.8199
