18
chgs=0 nmr=1 alpha=70.34 b3lypd3vdz=-235.644038954382 
     C     -3.54840000     -0.67920000      4.55730000   -0.0721  180.5677
     C     -3.88230000      0.82070000      4.57630000   -0.0623  181.2281
     C      2.08100000      0.19180000      3.00120000   -0.0018   71.4981
     C      0.98480000     -0.15760000      3.80220000   -0.0254   55.4580
     C      0.45840000     -1.45210000      3.78880000   -0.0285   52.9073
     C      1.01760000     -2.42980000      2.95410000    0.0018   69.4953
     H     -4.39500000     -1.32650000      4.82530000    0.0214   30.3795
     H     -2.72210000     -0.89730000      5.25360000    0.0261   30.3988
     H     -4.86980000      0.99170000      4.11760000    0.0209   30.3125
     H     -3.89940000      1.24920000      5.58850000    0.0203   30.3995
     H     -3.20230000     -0.85540000      3.52810000    0.0258   30.1237
     H     -3.09900000      1.26760000      3.94650000    0.0238   30.1383
     H      0.53070000      0.59650000      4.45220000   -0.0195   25.0359
     H     -0.38490000     -1.72720000      4.42550000   -0.0159   24.8543
     H      2.49250000      1.21150000      2.97110000    0.0222   25.8284
     H      2.51990000     -0.59030000      2.36420000    0.0207   23.8257
     H      1.88690000     -2.17120000      2.33170000    0.0230   23.5679
     H      0.56610000     -3.43290000      2.95190000    0.0198   25.8421
