15
chgs=0 nmr=1 alpha=50.81 b3lypd3vdz=-233.525339672604 
     C     -6.72760000      0.54920000      0.23110000   -0.0774  182.7115
     C     -7.17340000      0.66390000     -1.24020000   -0.0616  181.7607
     C     -1.88600000      2.12790000     -0.35750000   -0.0293  159.6111
     C     -3.36750000      2.38270000     -0.31390000    0.1270   -4.5209
     O     -4.04740000      2.27800000      0.70320000   -0.1951 -353.0370
     H     -7.60780000      0.64120000      0.88650000    0.0103   30.6676
     H     -6.07680000      1.40620000      0.44970000    0.0415   29.3217
     H     -6.30940000      0.50900000     -1.90500000    0.0077   30.6872
     H     -7.93760000     -0.07880000     -1.49670000    0.0154   30.5999
     H     -6.18380000     -0.37210000      0.48700000    0.0114   30.9452
     H     -7.57180000      1.66990000     -1.43800000    0.0170   30.5676
     H     -1.37820000      3.00360000     -0.78400000    0.0452   29.3228
     H     -1.69840000      1.28000000     -1.04010000    0.0513   29.2654
     H     -1.50290000      1.90990000      0.65030000    0.0450   29.3536
     H     -3.79600000      2.66310000     -1.28740000   -0.0084   21.4542
