12
chgs=0 nmr=1 alpha=52.64 b3lypd3vdz=-211.19754045307 
     C      6.02880000     -1.42020000     -0.11300000    0.0199   41.3377
     N      6.20610000     -3.26820000     -1.40250000   -0.0668  182.4751
     C      6.25690000     -2.82580000     -0.09490000   -0.1061   47.1891
     C      6.04520000     -0.70090000      1.09900000    0.0255   72.3261
     C      6.47650000     -3.53090000      1.09720000   -0.0326  120.6739
     H      6.40150000     -4.21130000     -1.70730000    0.0889   28.1425
     H      5.87840000      0.37770000      1.10230000    0.0193   26.1396
     H      6.64460000     -4.61050000      1.09690000   -0.0164   27.9168
     H      5.88110000     -1.12740000     -1.16300000   -0.0403   25.5485
     H      6.02880000     -2.49070000     -2.00580000    0.0679   28.9047
     H      6.21940000     -1.25390000      2.03380000    0.0360   23.9963
     H      6.47380000     -2.95250000      2.03290000    0.0047   26.3640
