11
chgs=0 nmr=1 alpha=34.96 b3lypd3vdz=-210.264242192901 
     N     -4.14050000     -1.27530000     -1.02540000   -0.2142  253.1384
     C     -3.54700000     -2.02120000     -2.12210000    0.0777  143.3519
     C     -2.83870000     -1.09330000     -3.13790000    0.1464  122.7775
     O     -1.71160000     -0.46870000     -2.50910000   -0.2912  308.7637
     H     -3.49920000     -0.77170000     -0.41380000    0.0848   30.4541
     H     -4.37040000     -2.54620000     -2.62940000   -0.0030   29.0915
     H     -2.49380000     -1.73900000     -3.96220000   -0.0155   27.9516
     H     -0.90150000     -0.86780000     -2.89010000    0.1451   31.1384
     H     -5.09330000     -1.42480000     -0.76120000    0.0729   30.9528
     H     -2.83000000     -2.78180000     -1.77940000   -0.0110   28.3299
     H     -3.51190000     -0.31800000     -3.53260000    0.0079   27.8449
