7
chgs=0 nmr=1 alpha=24.8 b3lypd3vdz=-153.749747664538 
     C     -1.35040000      1.82310000      1.05140000   -0.0309  163.0054
     C     -1.91270000      0.47570000      1.51600000    0.1120  -11.8100
     O     -1.83470000     -0.51030000      0.76680000   -0.2198 -419.6066
     H     -1.61820000      2.64140000      1.72800000    0.0207   29.4500
     H     -0.25490000      1.72910000      1.08280000    0.0610   29.5947
     H     -1.73350000      2.04110000      0.04360000    0.0599   29.4098
     H     -2.39240000      0.39280000      2.50240000   -0.0029   20.9581
