14
chgs=0 nmr=1 alpha=60.16 b3lypd3vdz=-270.316718224563 
     C      4.42820000      3.44170000      0.90960000    0.1859   -6.7057
     O      4.96590000      2.35460000      0.66000000   -0.1902 -465.0041
     C      6.02880000     -1.42020000     -0.11300000   -0.0414   40.9904
     C      6.25690000     -2.82580000     -0.09490000   -0.0144   60.1947
     C      6.04520000     -0.70090000      1.09900000    0.0003   56.0427
     C      6.26560000     -1.40060000      2.28170000   -0.0017   75.2441
     H      4.93670000      4.38870000      0.67620000    0.0217   21.3114
     H      3.42440000      3.49910000      1.35580000    0.0233   21.3067
     H      5.87840000      0.37770000      1.10230000   -0.0132   23.5390
     H      6.27140000     -0.86200000      3.23210000    0.0094   26.3071
     H      5.88110000     -1.12740000     -1.16300000   -0.0222   23.9408
     H      6.21640000     -3.17810000     -1.13620000    0.0088   25.3375
     H      6.42920000     -3.37890000      0.84020000    0.0181   22.7953
     H      6.42710000     -2.48870000      2.28190000    0.0155   23.6752
