12
chgs=0 nmr=1 alpha=46.8 b3lypd3vdz=-306.318779128036 
     C     -1.35040000      1.82310000      1.05140000   -0.0017  154.8979
     C     -1.91270000      0.47570000      1.51600000    0.1662  -14.5946
     O     -1.83470000     -0.51030000      0.76680000   -0.2306 -361.2249
     C     -1.88600000      2.12790000     -0.35750000   -0.0487  145.2567
     C     -3.36750000      2.38270000     -0.31390000    0.1777   -6.5204
     O     -4.04740000      2.27800000      0.70320000   -0.2083 -336.6929
     H     -1.61820000      2.64140000      1.72800000    0.0199   28.8735
     H     -1.37820000      3.00360000     -0.78400000    0.0334   29.0443
     H     -1.69840000      1.28000000     -1.04010000    0.0597   28.0381
     H     -0.25490000      1.72910000      1.08280000    0.0367   29.8559
     H     -2.39240000      0.39280000      2.50240000    0.0006   20.8088
     H     -3.79600000      2.66310000     -1.28740000   -0.0050   21.6144
