13
chgs=0 nmr=1 alpha=47.82 b3lypd3vdz=-323.555109781206 
     C      1.94450000     -0.78610000     -1.39400000    0.1988   -9.8776
     O      1.25770000      0.07870000     -0.82990000   -0.2120 -430.4087
     N      0.09590000      1.69900000      1.09290000   -0.1479  143.8540
     C     -1.35040000      1.82310000      1.05140000    0.0638  167.2903
     C      0.90310000      2.70560000      1.48210000    0.1902   37.8413
     O      0.49730000      3.84920000      1.74780000   -0.3093  -75.4065
     H      1.63630000     -1.84080000     -1.44490000    0.0308   21.3395
     H      2.90130000     -0.55550000     -1.88520000    0.0351   21.3299
     H      0.50170000      0.84260000      0.71010000    0.0830   24.1985
     H     -1.61820000      2.64140000      1.72800000    0.0474   27.4229
     H     -1.75410000      0.85570000      1.38500000    0.0183   29.1064
     H     -1.73350000      2.04110000      0.04360000    0.0291   28.9369
     H      1.96370000      2.42910000      1.57540000   -0.0274   23.4346
