18
chgs=0 nmr=1 alpha=69.41 b3lypd3vdz=-326.871652073247 
     C      4.42820000      3.44170000      0.90960000    0.1822   -5.0501
     O      4.96590000      2.35460000      0.66000000   -0.1926 -463.1499
     C      5.96040000     -2.19040000     -2.23880000   -0.0255   64.9554
     N      3.11920000     -0.50300000     -1.99710000   -0.2199  243.7404
     C      3.96600000      0.65520000     -1.66450000    0.0731  152.5758
     C      5.43980000      0.31980000     -1.99600000    0.0445  158.3735
     C      5.83470000     -1.03550000     -1.49250000   -0.0786   41.1726
     H      4.93670000      4.38870000      0.67620000    0.0241   21.3861
     H      3.42440000      3.49910000      1.35580000    0.0225   21.3542
     H      5.91250000     -2.32370000     -3.31810000    0.0095   25.6370
     H      3.66780000     -1.30950000     -2.29190000    0.0714   30.9538
     H      3.89510000      0.83610000     -0.58100000    0.0144   28.3436
     H      5.58910000      0.39330000     -3.08410000    0.0076   29.2676
     H      6.04570000      1.11050000     -1.53420000    0.0180   28.8193
     H      6.15540000     -3.04570000     -1.57510000    0.0112   25.8196
     H      2.24940000     -0.71260000     -1.55050000    0.0645   31.8152
     H      3.68100000      1.60630000     -2.13800000   -0.0134   29.4591
     H      5.98240000     -1.32830000     -0.44250000   -0.0128   24.6412
