14
chgs=0 nmr=1 alpha=45.4 b3lypd3vdz=-249.540250534882 
     N      3.18890000      3.51260000      1.46050000   -0.2392  267.9868
     C      2.37390000      2.32220000      1.61150000    0.0434  162.1616
     C      3.96600000      0.65520000     -1.66450000   -0.0587  157.9002
     C      3.56570000      1.99100000     -2.32950000    0.1254   -4.4138
     O      4.40780000      2.72380000     -2.83520000   -0.2035 -371.3598
     H      2.70330000      4.40390000      1.49810000    0.0808   31.5036
     H      2.62670000      1.62560000      0.80080000    0.0015   28.5153
     H      4.10140000      3.46040000      1.05490000    0.0773   32.1210
     H      1.31330000      2.59870000      1.51820000    0.0213   28.8661
     H      2.56610000      1.80640000      2.56390000    0.0144   28.5311
     H      3.89510000      0.83610000     -0.58100000    0.0601   29.2550
     H      3.33350000     -0.20980000     -1.91290000    0.0404   29.1303
     H      5.01370000      0.41680000     -1.90020000    0.0405   29.4673
     H      2.49780000      2.24810000     -2.27050000   -0.0036   21.2659
