19
chgs=0 nmr=1 alpha=66.62 b3lypd3vdz=-347.940916989939 
     C      2.12680000     -2.09980000      2.16000000   -0.0490   56.2478
     C      1.01760000     -2.42980000      2.95410000   -0.0735   58.4010
     C     -2.54580000     -3.08320000     -1.64360000    0.2065  -13.5382
     O     -1.85310000     -3.71080000     -2.46200000   -0.2332 -429.6715
     O      0.17140000     -2.23790000     -3.52280000   -0.3127  269.7282
     C      1.51630000     -2.25140000     -1.46470000   -0.0469  166.9979
     C      1.36760000     -2.75080000     -2.94330000    0.1133  131.4703
     H      2.57640000     -2.86320000      1.52270000    0.0371   25.1947
     H      2.53330000     -1.07790000      2.18220000    0.0318   25.0146
     H      0.57880000     -1.66260000      3.60900000    0.0286   25.2833
     H      0.56610000     -3.43290000      2.95190000    0.0283   25.1515
     H     -3.26280000     -2.32260000     -1.98630000    0.0362   21.2648
     H     -2.43150000     -3.20220000     -0.55600000    0.0385   21.1793
     H     -0.55590000     -2.85860000     -3.27480000    0.1501   30.0843
     H      2.30700000     -2.84320000     -0.97730000    0.0020   30.7200
     H      2.19480000     -2.32230000     -3.53340000    0.0119   27.7965
     H      0.58470000     -2.42140000     -0.90500000    0.0060   30.8966
     H      1.82450000     -1.19670000     -1.41380000    0.0235   30.1496
     H      1.40180000     -3.84800000     -3.01410000    0.0016   27.6696
