16
chgs=0 nmr=1 alpha=57.55 b3lypd3vdz=-362.835225855307 
     C     -1.91270000      0.47570000      1.51600000    0.1772   -5.1168
     O     -1.83470000     -0.51030000      0.76680000   -0.2071 -504.9168
     C      1.94450000     -0.78610000     -1.39400000    0.1917   35.4155
     O      1.25770000      0.07870000     -0.82990000   -0.2866 -116.5772
     N      3.11920000     -0.50300000     -1.99710000   -0.1310  132.5735
     C      3.96600000      0.65520000     -1.66450000    0.0663  153.0483
     C      5.43980000      0.31980000     -1.99600000   -0.0602  173.9350
     H     -1.50900000      1.44310000      1.18240000    0.0203   21.1596
     H     -2.39240000      0.39280000      2.50240000    0.0078   21.1391
     H      3.66780000     -1.30950000     -2.29190000    0.0821   28.1580
     H      3.89510000      0.83610000     -0.58100000    0.0262   28.2410
     H      5.58910000      0.39330000     -3.08410000    0.0338   29.9283
     H      6.04570000      1.11050000     -1.53420000    0.0319   30.0811
     H      1.63630000     -1.84080000     -1.44490000   -0.0148   23.2984
     H      3.68100000      1.60630000     -2.13800000    0.0350   28.3556
     H      5.72960000     -0.67490000     -1.62650000    0.0274   30.6286
