12
chgs=0 nmr=1 alpha=58.73 b3lypd3vdz=-232.115761296229 
     C      6.02880000     -1.42020000     -0.11300000    0.0074   56.1643
     C      6.25690000     -2.82580000     -0.09490000    0.0040   55.9365
     C      6.04520000     -0.70090000      1.09900000    0.0515   68.2208
     C      6.47650000     -3.53090000      1.09720000    0.0510   68.7771
     C      6.26560000     -1.40060000      2.28170000    0.0284   66.4696
     C      6.47310000     -2.79860000      2.28190000    0.0258   65.2276
     H      5.87840000      0.37770000      1.10230000   -0.0250   24.1811
     H      6.64460000     -4.61050000      1.09690000   -0.0257   24.1052
     H      6.27140000     -0.86200000      3.23210000   -0.0277   24.1575
     H      6.63660000     -3.31610000      3.23010000   -0.0274   24.1761
     H      5.88110000     -1.12740000     -1.16300000   -0.0303   23.4959
     H      6.21640000     -3.17810000     -1.13620000   -0.0320   23.7043
