4
chgs=0 nmr=1 alpha=7.87 b3lypd3vdz=-56.507326899903 
     N      0.09590000      1.69900000      1.09290000   -0.2604  281.3766
     H      0.50170000      0.84260000      0.71010000    0.0880   31.4601
     H      0.69480000      2.44590000      1.38170000    0.0876   31.6093
     H     -0.90000000      1.78450000      1.06430000    0.0848   31.7869
