12
chgs=0 nmr=1 alpha=39.07 b3lypd3vdz=-285.485934311617 
     O      0.17140000     -2.23790000     -3.52280000   -0.3329  320.3152
     C      1.36760000     -2.75080000     -2.94330000    0.1081  142.7476
     C     -2.54580000     -3.08320000     -1.64360000    0.1972   35.7689
     O     -1.85310000     -3.71080000     -2.46200000   -0.3072  -65.8480
     N     -2.40610000     -3.22870000     -0.31420000   -0.0509  159.5734
     H     -0.55590000     -2.85860000     -3.27480000    0.1546   28.8855
     H      2.19480000     -2.32230000     -3.53340000    0.0150   28.0455
     H      1.47190000     -2.40040000     -1.90580000   -0.0124   28.1358
     H      1.40180000     -3.84800000     -3.01410000    0.0046   27.9826
     H     -3.05840000     -2.77050000      0.31520000    0.1045   27.0811
     H     -3.26280000     -2.32260000     -1.98630000    0.0141   23.3594
     H     -1.68320000     -3.77990000      0.10240000    0.1053   27.0706
