10
chgs=0 nmr=1 alpha=36.1 b3lypd3vdz=-284.269874613315 
     C      1.94450000     -0.78610000     -1.39400000    0.1989   -9.7391
     O      1.25770000      0.07870000     -0.82990000   -0.2129 -430.7103
     N      0.09590000      1.69900000      1.09290000   -0.0714  156.5958
     C      0.90310000      2.70560000      1.48210000    0.1646   38.5940
     O      0.49730000      3.84920000      1.74780000   -0.2989  -92.0309
     H      1.63630000     -1.84080000     -1.44490000    0.0308   21.3656
     H      2.90130000     -0.55550000     -1.88520000    0.0350   21.3385
     H      0.50170000      0.84260000      0.71010000    0.0905   24.3752
     H     -0.90000000      1.78450000      1.06430000    0.0865   27.3264
     H      1.96370000      2.42910000      1.57540000   -0.0230   23.4637
