14
chgs=0 nmr=1 alpha=50.18 b3lypd3vdz=-303.721708312154 
     N      5.62010000      4.82020000     -0.78950000   -0.1704  237.3484
     C      5.13490000      4.75780000      0.58520000    0.0881  143.7250
     C      4.42820000      3.44170000      0.90960000    0.0880   21.6038
     O      4.96590000      2.35460000      0.66000000   -0.2981  -48.0791
     N      3.18890000      3.51260000      1.46050000   -0.1498  157.1104
     C      2.37390000      2.32220000      1.61150000    0.0613  165.0220
     H      6.12690000      3.95360000     -0.98840000    0.0831   30.2905
     H      4.80970000      4.78470000     -1.41320000    0.0680   31.7350
     H      5.99190000      4.83530000      1.27870000    0.0452   28.4620
     H      4.47090000      5.61460000      0.77610000   -0.0017   29.0617
     H      2.70330000      4.40390000      1.49810000    0.0831   27.1701
     H      2.62670000      1.62560000      0.80080000    0.0446   27.9474
     H      1.31330000      2.59870000      1.51820000    0.0190   29.2772
     H      2.56610000      1.80640000      2.56390000    0.0396   28.9136
