16
chgs=0 nmr=1 alpha=57.08 b3lypd3vdz=-362.87197643326 
     N      2.23970000      2.31020000     -2.25620000   -0.0732  170.3432
     C      3.96600000      0.65520000     -1.66450000   -0.0181  167.6144
     C      3.56570000      1.99100000     -2.32950000    0.0401   29.8559
     O      4.40780000      2.72380000     -2.83520000   -0.2695  -78.9281
     C      5.13490000      4.75780000      0.58520000   -0.0383  163.3626
     C      4.42820000      3.44170000      0.90960000    0.1291  -11.6711
     O      4.96590000      2.35460000      0.66000000   -0.2134 -391.1735
     H      1.62560000      1.68770000     -1.72520000    0.0928   27.3599
     H      3.89510000      0.83610000     -0.58100000    0.0537   28.8032
     H      1.90410000      3.20400000     -2.55380000    0.0891   27.9507
     H      3.33350000     -0.20980000     -1.91290000    0.0182   29.9451
     H      5.01370000      0.41680000     -1.90020000    0.0409   29.8629
     H      5.99190000      4.83530000      1.27870000    0.0591   29.6016
     H      4.47090000      5.61460000      0.77610000    0.0199   29.4121
     H      5.50070000      4.80480000     -0.45110000    0.0769   29.1127
     H      3.42440000      3.49910000      1.35580000   -0.0073   21.0156
