16
chgs=0 nmr=1 alpha=57.09 b3lypd3vdz=-362.82842941974 
     C      1.94450000     -0.78610000     -1.39400000    0.1785   -4.0729
     O      1.25770000      0.07870000     -0.82990000   -0.2008 -487.0939
     C     -1.91270000      0.47570000      1.51600000    0.2136   38.1530
     O     -1.83470000     -0.51030000      0.76680000   -0.2956 -122.4599
     N     -2.50100000      0.37410000      2.72560000   -0.1431  123.5214
     C     -3.06370000     -0.92600000      3.11590000    0.0691  155.1721
     C     -3.54840000     -0.67920000      4.55730000   -0.0497  171.5421
     H      1.63630000     -1.84080000     -1.44490000    0.0161   21.3215
     H      2.90130000     -0.55550000     -1.88520000    0.0077   21.2808
     H     -2.29450000     -1.70630000      3.05990000    0.0324   28.1823
     H     -4.39500000     -1.32650000      4.82530000    0.0290   29.8306
     H     -2.72210000     -0.89730000      5.25360000    0.0358   29.6006
     H     -1.50900000      1.44310000      1.18240000   -0.0088   22.9276
     H     -2.69620000      1.10040000      3.38470000    0.0748   27.7525
     H     -3.86060000     -1.26200000      2.43610000    0.0282   28.3849
     H     -3.78740000      0.39440000      4.57090000    0.0129   30.8723
