12
chgs=0 nmr=1 alpha=41.97 b3lypd3vdz=-339.626180621288 
     N      3.11920000     -0.50300000     -1.99710000   -0.0684  167.9399
     C      1.94450000     -0.78610000     -1.39400000    0.1673   37.1962
     O      1.25770000      0.07870000     -0.82990000   -0.2729 -122.7012
     N     -2.50100000      0.37410000      2.72560000   -0.0657  170.6817
     C     -1.91270000      0.47570000      1.51600000    0.1755   39.4148
     O     -1.83470000     -0.51030000      0.76680000   -0.2843 -115.4454
     H      3.66780000     -1.30950000     -2.29190000    0.0876   28.1007
     H      3.69420000      0.28340000     -1.77130000    0.0938   27.8231
     H      1.63630000     -1.84080000     -1.44490000   -0.0056   23.3189
     H     -2.88390000     -0.51070000      2.99120000    0.0890   27.9514
     H     -2.69620000      1.10040000      3.38470000    0.0816   27.6265
     H     -1.50900000      1.44310000      1.18240000    0.0021   23.0373
