11
chgs=0 nmr=1 alpha=43.4 b3lypd3vdz=-322.37102866906 
     C     -2.54580000     -3.08320000     -1.64360000    0.1989   36.4685
     O     -1.85310000     -3.71080000     -2.46200000   -0.2899 -106.3150
     N     -2.40610000     -3.22870000     -0.31420000   -0.1297  153.0586
     C     -1.36200000     -4.02470000      0.28750000    0.0666  140.9529
     C      0.07660000     -3.63300000     -0.06370000    0.1636  -13.5849
     O      0.98870000     -4.40750000      0.25670000   -0.2147 -372.9498
     H     -3.05840000     -2.77050000      0.31520000    0.0908   26.9354
     H     -1.46800000     -3.96920000      1.37910000    0.0470   28.4517
     H     -1.43760000     -5.08370000     -0.00650000    0.0668   27.1316
     H     -3.26280000     -2.32260000     -1.98630000   -0.0064   23.0210
     H      0.25030000     -2.69080000     -0.60420000    0.0070   21.3055
