9
chgs=0 nmr=1 alpha=28.0 b3lypd3vdz=-154.952736034907 
     C     -2.83870000     -1.09330000     -3.13790000    0.0984  132.7323
     O     -1.71160000     -0.46870000     -2.50910000   -0.2870  302.8563
     C     -3.77040000     -0.02030000     -3.68410000   -0.0216  172.0378
     H     -2.49380000     -1.73900000     -3.96220000   -0.0007   27.8065
     H     -0.90150000     -0.86780000     -2.89010000    0.1446   30.8430
     H     -3.25600000      0.55400000     -4.46900000    0.0179   30.1909
     H     -4.68470000     -0.46680000     -4.10730000    0.0098   30.5118
     H     -4.05240000      0.68150000     -2.88650000    0.0297   30.1062
     H     -3.34220000     -1.75290000     -2.41580000    0.0089   27.6824
