4
chgs=0 nmr=1 alpha=13.33 b3lypd3vdz=-114.448829592313 
     C     -4.17810000     -1.39590000      2.16520000    0.1768   -1.7430
     O     -4.36040000     -2.59610000      1.96420000   -0.2023 -468.6608
     H     -3.38120000     -1.05990000      2.84500000    0.0117   21.4471
     H     -4.78910000     -0.61280000      1.69260000    0.0138   21.3595
