17
chgs=0 nmr=1 alpha=72.58 b3lypd3vdz=-309.637227285496 
     C      6.04520000     -0.70090000      1.09900000    0.0055   67.9300
     C      6.47650000     -3.53090000      1.09720000    0.0042   74.9205
     C      6.26560000     -1.40060000      2.28170000   -0.0378   57.6462
     C      6.47310000     -2.79860000      2.28190000   -0.0278   54.5090
     C      5.13490000      4.75780000      0.58520000   -0.0415  163.0608
     C      4.42820000      3.44170000      0.90960000    0.1271  -12.4549
     O      4.96590000      2.35460000      0.66000000   -0.2012 -394.5345
     H      5.87840000      0.37770000      1.10230000    0.0322   24.3418
     H      6.64460000     -4.61050000      1.09690000    0.0132   26.0296
     H      6.27140000     -0.86200000      3.23210000   -0.0302   25.1976
     H      6.63660000     -3.31610000      3.23010000   -0.0266   25.1087
     H      6.03240000     -1.26230000      0.15310000    0.0106   23.7144
     H      6.30420000     -2.97780000      0.16210000    0.0172   23.9555
     H      5.99190000      4.83530000      1.27870000    0.0638   29.4663
     H      4.47090000      5.61460000      0.77610000    0.0255   29.2508
     H      5.50070000      4.80480000     -0.45110000    0.0620   29.3183
     H      3.42440000      3.49910000      1.35580000    0.0038   20.9765
