14
chgs=0 nmr=1 alpha=50.78 b3lypd3vdz=-307.508753162295 
     C      3.96600000      0.65520000     -1.66450000   -0.0480  156.4379
     C      3.56570000      1.99100000     -2.32950000    0.1209   -6.8661
     O      4.40780000      2.72380000     -2.83520000   -0.2118 -363.8688
     C      5.13490000      4.75780000      0.58520000   -0.0381  163.4479
     C      4.42820000      3.44170000      0.90960000    0.1244  -12.9506
     O      4.96590000      2.35460000      0.66000000   -0.2149 -394.5596
     H      3.89510000      0.83610000     -0.58100000    0.0599   28.7431
     H      3.33350000     -0.20980000     -1.91290000    0.0260   29.4178
     H      5.01370000      0.41680000     -1.90020000    0.0390   29.4766
     H      2.49780000      2.24810000     -2.27050000   -0.0149   21.4026
     H      5.99190000      4.83530000      1.27870000    0.0611   29.6350
     H      4.47090000      5.61460000      0.77610000    0.0239   29.4117
     H      5.50070000      4.80480000     -0.45110000    0.0737   29.2860
     H      3.42440000      3.49910000      1.35580000   -0.0013   21.0869
