15
chgs=0 nmr=1 alpha=55.09 b3lypd3vdz=-378.912941013459 
     C     -2.54580000     -3.08320000     -1.64360000    0.1684   38.2716
     O     -1.85310000     -3.71080000     -2.46200000   -0.3028  -96.5441
     N     -2.40610000     -3.22870000     -0.31420000   -0.0435  157.9938
     N     -2.50100000      0.37410000      2.72560000   -0.1291  155.9345
     C     -1.91270000      0.47570000      1.51600000    0.1819   34.5195
     O     -1.83470000     -0.51030000      0.76680000   -0.2966 -100.4585
     C     -2.78870000      1.44460000      3.69700000    0.0524  163.0537
     H     -3.05840000     -2.77050000      0.31520000    0.0835   27.3251
     H     -3.26280000     -2.32260000     -1.98630000   -0.0143   23.3428
     H     -1.68320000     -3.77990000      0.10240000    0.0891   27.3769
     H     -1.88090000      1.68360000      4.27730000    0.0467   28.2990
     H     -3.13200000      2.35020000      3.17990000    0.0470   28.3418
     H     -2.88390000     -0.51070000      2.99120000    0.0792   27.7841
     H     -1.50900000      1.44310000      1.18240000   -0.0028   23.2143
     H     -3.57200000      0.99770000      4.32680000    0.0410   28.7821
