16
chgs=0 nmr=1 alpha=57.33 b3lypd3vdz=-362.807844964576 
     C      4.42820000      3.44170000      0.90960000    0.1849   -6.4225
     O      4.96590000      2.35460000      0.66000000   -0.1966 -457.8805
     N      3.11920000     -0.50300000     -1.99710000   -0.1932  244.9422
     C      3.96600000      0.65520000     -1.66450000   -0.0754  132.3064
     C      3.56570000      1.99100000     -2.32950000    0.2117  -12.2751
     O      4.40780000      2.72380000     -2.83520000   -0.2101 -333.8346
     C      5.43980000      0.31980000     -1.99600000    0.0189  171.4097
     H      4.93670000      4.38870000      0.67620000    0.0316   21.5485
     H      3.42440000      3.49910000      1.35580000    0.0205   21.4552
     H      3.66780000     -1.30950000     -2.29190000    0.0772   31.6484
     H      3.89510000      0.83610000     -0.58100000    0.0231   27.8122
     H      5.58910000      0.39330000     -3.08410000    0.0241   30.1391
     H      6.04570000      1.11050000     -1.53420000    0.0336   29.5563
     H      2.24940000     -0.71260000     -1.55050000    0.0698   31.1362
     H      2.49780000      2.24810000     -2.27050000   -0.0294   21.4878
     H      5.72960000     -0.67490000     -1.62650000    0.0092   30.7978
