20
chgs=0 nmr=1 alpha=77.91 b3lypd3vdz=-290.949206449728 
     N     -2.50100000      0.37410000      2.72560000   -0.2103  237.3941
     C     -3.06370000     -0.92600000      3.11590000    0.0553  155.1396
     C     -3.54840000     -0.67920000      4.55730000   -0.0400  168.0906
     C      2.64120000     -0.80650000      2.18810000    0.0031   73.8840
     C      2.12680000     -2.09980000      2.16000000   -0.0173   55.9423
     C      0.45840000     -1.45210000      3.78880000    0.0170   66.3562
     C      1.01760000     -2.42980000      2.95410000   -0.0422   54.6252
     H     -2.29450000     -1.70630000      3.05990000   -0.0010   28.5931
     H     -4.39500000     -1.32650000      4.82530000    0.0162   29.9967
     H     -2.72210000     -0.89730000      5.25360000    0.0266   29.6137
     H     -2.06490000      0.44940000      1.82890000    0.0737   31.4170
     H     -2.69620000      1.10040000      3.38470000    0.0691   32.1534
     H     -3.86060000     -1.26200000      2.43610000   -0.0075   28.8102
     H     -3.78740000      0.39440000      4.57090000    0.0150   31.1903
     H      3.50920000     -0.57500000      1.56880000    0.0139   26.2558
     H      2.57640000     -2.86320000      1.52270000   -0.0205   25.0580
     H     -0.38490000     -1.72720000      4.42550000    0.0244   25.9056
     H      2.20230000     -0.02440000      2.82510000    0.0230   23.7331
     H      0.87270000     -0.43320000      3.79930000    0.0199   23.2620
     H      0.56610000     -3.43290000      2.95190000   -0.0186   24.8714
