16
chgs=0 nmr=1 alpha=68.96 b3lypd3vdz=-234.416240810298 
     C      2.08100000      0.19180000      3.00120000   -0.0638   60.0427
     C      2.64120000     -0.80650000      2.18810000   -0.0621   51.3806
     C      6.04520000     -0.70090000      1.09900000   -0.0007   72.8368
     C      6.47650000     -3.53090000      1.09720000    0.0099   72.0457
     C      6.26560000     -1.40060000      2.28170000   -0.0185   53.4133
     C      6.47310000     -2.79860000      2.28190000   -0.0291   55.0086
     H      3.50920000     -0.57500000      1.56880000    0.0322   24.7992
     H      2.49250000      1.21150000      2.97110000    0.0249   25.0726
     H      1.22090000     -0.08240000      3.62970000    0.0265   25.1691
     H      2.23470000     -1.82840000      2.16590000    0.0247   24.9871
     H      5.87840000      0.37770000      1.10230000    0.0253   25.9850
     H      6.64460000     -4.61050000      1.09690000    0.0212   25.8576
     H      6.27140000     -0.86200000      3.23210000   -0.0160   24.9938
     H      6.63660000     -3.31610000      3.23010000   -0.0186   25.0458
     H      6.03240000     -1.26230000      0.15310000    0.0230   23.9393
     H      6.30420000     -2.97780000      0.16210000    0.0210   23.8643
