15
chgs=0 nmr=1 alpha=51.11 b3lypd3vdz=-233.48616858222 
     C      2.64120000     -0.80650000      2.18810000   -0.0563   59.6847
     C      2.12680000     -2.09980000      2.16000000   -0.0559   58.8142
     O      0.17140000     -2.23790000     -3.52280000   -0.2862  282.9469
     C      1.51630000     -2.25140000     -1.46470000   -0.0415  166.0759
     C      1.36760000     -2.75080000     -2.94330000    0.1057  129.9430
     H      3.50920000     -0.57500000      1.56880000    0.0271   25.3746
     H      2.57640000     -2.86320000      1.52270000    0.0313   25.2907
     H      2.20230000     -0.02440000      2.82510000    0.0304   25.1497
     H      1.25750000     -2.35840000      2.78240000    0.0279   25.2280
     H     -0.55590000     -2.85860000     -3.27480000    0.1431   31.3223
     H      2.30700000     -2.84320000     -0.97730000    0.0052   30.5014
     H      2.19480000     -2.32230000     -3.53340000    0.0214   27.6190
     H      0.58470000     -2.42140000     -0.90500000    0.0134   30.5775
     H      1.82450000     -1.19670000     -1.41380000    0.0318   29.8114
     H      1.40180000     -3.84800000     -3.01410000    0.0026   27.7463
