23
chgs=0 nmr=1 alpha=82.26 b3lypd3vdz=-276.126628733152 
     C      2.64120000     -0.80650000      2.18810000   -0.0587   54.6731
     C      2.12680000     -2.09980000      2.16000000   -0.0601   60.8887
     C      6.04520000     -0.70090000      1.09900000   -0.0616   59.5511
     C      6.26560000     -1.40060000      2.28170000   -0.0458   56.4028
     C      1.41510000     -4.27320000     -3.04150000   -0.0179  173.2296
     C      1.51630000     -2.25140000     -1.46470000   -0.0317  169.2154
     C      1.36760000     -2.75080000     -2.94330000   -0.0642  169.5962
     H      3.50920000     -0.57500000      1.56880000    0.0328   25.0577
     H      2.57640000     -2.86320000      1.52270000    0.0277   25.3961
     H      2.20230000     -0.02440000      2.82510000    0.0216   25.0853
     H      1.25750000     -2.35840000      2.78240000    0.0238   25.3767
     H      5.87840000      0.37770000      1.10230000    0.0333   25.1870
     H      6.27140000     -0.86200000      3.23210000    0.0293   25.2694
     H      6.03240000     -1.26230000      0.15310000    0.0310   25.1193
     H      6.42710000     -2.48870000      2.28190000    0.0313   24.9744
     H      1.34630000     -4.57280000     -4.09850000    0.0121   30.1789
     H      2.34810000     -4.66960000     -2.61180000    0.0169   30.5860
     H      0.56830000     -4.72120000     -2.50170000    0.0161   30.4625
     H      2.30700000     -2.84320000     -0.97730000    0.0140   30.7304
     H      2.19480000     -2.32230000     -3.53340000    0.0053   30.0562
     H      0.58470000     -2.42140000     -0.90500000    0.0217   30.3707
     H      1.82450000     -1.19670000     -1.41380000    0.0164   30.1831
     H      0.44400000     -2.35480000     -3.39070000    0.0068   30.1417
