8
chgs=0 nmr=1 alpha=24.72 b3lypd3vdz=-79.767053895517 
     C      2.64600000      1.59200000      2.95990000   -0.0636  181.1462
     C      2.37390000      2.32220000      1.61150000   -0.0664  181.0122
     H      3.74190000      1.55800000      3.06080000    0.0208   30.2818
     H      2.25480000      2.20950000      3.78430000    0.0218   30.3150
     H      2.62670000      1.62560000      0.80080000    0.0198   30.3997
     H      2.23450000      0.57230000      2.99000000    0.0254   30.3987
     H      2.99190000      3.22490000      1.49700000    0.0216   30.4722
     H      1.31330000      2.59870000      1.51820000    0.0206   30.4155
