16
chgs=0 nmr=1 alpha=59.28 b3lypd3vdz=-362.875390491427 
     C      1.51630000     -2.25140000     -1.46470000   -0.0420  158.1521
     C      1.94450000     -0.78610000     -1.39400000    0.1485  -14.8163
     O      1.25770000      0.07870000     -0.82990000   -0.2178 -346.7872
     N      0.09590000      1.69900000      1.09290000   -0.0556  161.8010
     C      2.37390000      2.32220000      1.61150000   -0.0113  169.9413
     C      0.90310000      2.70560000      1.48210000    0.0358   29.6981
     O      0.49730000      3.84920000      1.74780000   -0.2932  -80.1398
     H      2.30700000     -2.84320000     -0.97730000    0.0538   29.3244
     H      0.58470000     -2.42140000     -0.90500000    0.0479   29.2684
     H      1.41200000     -2.60180000     -2.50220000    0.0592   29.0323
     H      2.90130000     -0.55550000     -1.88520000    0.0178   21.2451
     H      0.50170000      0.84260000      0.71010000    0.0848   24.3867
     H      2.62670000      1.62560000      0.80080000    0.0126   30.0216
     H     -0.90000000      1.78450000      1.06430000    0.0808   27.6960
     H      2.99190000      3.22490000      1.49700000    0.0356   30.0114
     H      2.56610000      1.80640000      2.56390000    0.0429   29.6861
