5
chgs=0 nmr=1 alpha=13.41 b3lypd3vdz=-40.481811393522 
     C      5.43980000      0.31980000     -1.99600000   -0.1255  196.6297
     H      5.58910000      0.39330000     -3.08410000    0.0305   31.0500
     H      6.04570000      1.11050000     -1.53420000    0.0285   31.1285
     H      4.39210000      0.55820000     -1.76030000    0.0306   31.0508
     H      5.72960000     -0.67490000     -1.62650000    0.0359   30.9639
