13
chgs=0 nmr=1 alpha=45.69 b3lypd3vdz=-323.591531972168 
     C     -3.54700000     -2.02120000     -2.12210000    0.0062  150.3538
     C     -2.54580000     -3.08320000     -1.64360000    0.0732   26.5794
     O     -1.85310000     -3.71080000     -2.46200000   -0.2957  -50.2174
     C     -2.83870000     -1.09330000     -3.13790000    0.1445  129.3977
     O     -1.71160000     -0.46870000     -2.50910000   -0.2959  306.5574
     N     -2.40610000     -3.22870000     -0.31420000   -0.0404  163.1948
     H     -4.37040000     -2.54620000     -2.62940000    0.0292   29.7469
     H     -2.49380000     -1.73900000     -3.96220000    0.0254   26.9885
     H     -0.90150000     -0.86780000     -2.89010000    0.1558   30.4028
     H     -3.05840000     -2.77050000      0.31520000    0.0927   27.1529
     H     -3.99630000     -1.45650000     -1.29190000    0.0002   29.5506
     H     -3.51190000     -0.31800000     -3.53260000    0.0119   27.7548
     H     -1.68320000     -3.77990000      0.10240000    0.0929   27.5628
