14
chgs=0 nmr=1 alpha=55.12 b3lypd3vdz=-361.671344597109 
     C     -5.95950000     -0.75220000      0.59260000    0.0714  138.7705
     C     -5.44150000     -1.47950000     -0.66470000    0.1645   -9.5279
     O     -6.22450000     -2.15670000     -1.31890000   -0.1994 -359.6398
     C     -3.06370000     -0.92600000      3.11590000   -0.0016  168.6637
     C     -4.17810000     -1.39590000      2.16520000    0.0819   28.7953
     O     -4.36040000     -2.59610000      1.96420000   -0.2729  -87.8615
     N     -4.93360000     -0.42760000      1.58080000   -0.1514  153.4534
     H     -6.64650000     -1.48990000      1.03030000    0.0627   27.4218
     H     -2.29450000     -1.70630000      3.05990000    0.0539   29.5345
     H     -4.60560000      0.53540000      1.61300000    0.0878   26.7086
     H     -6.50330000      0.16910000      0.33670000    0.0436   28.4552
     H     -4.39340000     -1.31500000     -0.95530000   -0.0088   21.5336
     H     -2.64250000      0.04720000      2.82370000    0.0123   30.0481
     H     -3.40980000     -0.74980000      4.14510000    0.0559   29.2546
