10
chgs=0 nmr=1 alpha=45.14 b3lypd3vdz=-155.877288022681 
     C      2.08100000      0.19180000      3.00120000    0.0034   70.8681
     C      2.64120000     -0.80650000      2.18810000   -0.0246   53.8453
     C      2.12680000     -2.09980000      2.16000000   -0.0191   55.2670
     C      1.01760000     -2.42980000      2.95410000   -0.0058   70.0657
     H      3.50920000     -0.57500000      1.56880000   -0.0213   25.0631
     H      2.57640000     -2.86320000      1.52270000   -0.0197   24.9900
     H      2.49250000      1.21150000      2.97110000    0.0219   25.7942
     H      1.22090000     -0.08240000      3.62970000    0.0223   23.6530
     H      0.57880000     -1.66260000      3.60900000    0.0220   23.7753
     H      0.56610000     -3.43290000      2.95190000    0.0209   25.9068
