14
chgs=0 nmr=1 alpha=42.1 b3lypd3vdz=-195.429518997416 
     C     -1.35040000      1.82310000      1.05140000   -0.0565  181.9103
     C     -1.88600000      2.12790000     -0.35750000   -0.0825  182.9653
     C     -2.83870000     -1.09330000     -3.13790000    0.0990  142.2202
     O     -1.71160000     -0.46870000     -2.50910000   -0.2687  331.4771
     H     -1.61820000      2.64140000      1.72800000    0.0133   30.5800
     H     -1.37820000      3.00360000     -0.78400000    0.0069   30.8172
     H     -1.69840000      1.28000000     -1.04010000    0.0366   29.2603
     H     -0.25490000      1.72910000      1.08280000    0.0106   30.7012
     H     -1.75410000      0.85570000      1.38500000    0.0168   30.4398
     H     -2.96960000      2.31430000     -0.32560000    0.0095   30.7429
     H     -2.49380000     -1.73900000     -3.96220000    0.0117   27.8605
     H     -0.90150000     -0.86780000     -2.89010000    0.1462   31.5205
     H     -3.34220000     -1.75290000     -2.41580000    0.0231   27.7219
     H     -3.51190000     -0.31800000     -3.53260000    0.0338   27.7669
