20
chgs=0 nmr=1 alpha=64.1 b3lypd3vdz=-273.985988734922 
     C     -3.36750000      2.38270000     -0.31390000    0.1836   -1.7126
     O     -4.04740000      2.27800000      0.70320000   -0.1759 -432.6614
     C     -3.88230000      0.82070000      4.57630000   -0.0627  181.9278
     C     -2.78870000      1.44460000      3.69700000   -0.0600  180.6613
     C     -6.72760000      0.54920000      0.23110000   -0.0793  182.6875
     C     -7.17340000      0.66390000     -1.24020000   -0.0618  182.0017
     H     -2.28390000      2.19630000     -0.34580000    0.0239   21.4409
     H     -3.79600000      2.66310000     -1.28740000    0.0199   21.4283
     H     -4.86980000      0.99170000      4.11760000    0.0262   30.0232
     H     -3.89940000      1.24920000      5.58850000    0.0157   30.3778
     H     -1.88090000      1.68360000      4.27730000    0.0093   30.3836
     H     -3.13200000      2.35020000      3.17990000    0.0264   29.8232
     H     -3.64330000     -0.25290000      4.56270000    0.0160   30.0368
     H     -2.57400000      0.64570000      2.97200000    0.0117   30.0963
     H     -7.60780000      0.64120000      0.88650000    0.0130   30.5713
     H     -6.07680000      1.40620000      0.44970000    0.0365   29.4050
     H     -6.30940000      0.50900000     -1.90500000    0.0082   30.6823
     H     -7.93760000     -0.07880000     -1.49670000    0.0175   30.5624
     H     -6.18380000     -0.37210000      0.48700000    0.0143   30.8827
     H     -7.57180000      1.66990000     -1.43800000    0.0175   30.5543
