14
chgs=0 nmr=1 alpha=49.7 b3lypd3vdz=-398.808925385925 
     C     -3.06370000     -0.92600000      3.11590000   -0.0106  169.6205
     C     -4.17810000     -1.39590000      2.16520000    0.0314   30.4883
     O     -4.36040000     -2.59610000      1.96420000   -0.2771  -85.1671
     N     -4.93360000     -0.42760000      1.58080000   -0.0729  162.0493
     C     -3.36750000      2.38270000     -0.31390000    0.2479   32.9311
     O     -4.04740000      2.27800000      0.70320000   -0.2713  -90.1405
     O     -3.88670000      2.72240000     -1.49350000   -0.1479  122.6001
     H     -2.29450000     -1.70630000      3.05990000    0.0432   29.8632
     H     -4.60560000      0.53540000      1.61300000    0.0964   26.2962
     H     -2.64250000      0.04720000      2.82370000    0.0113   29.9768
     H     -3.40980000     -0.74980000      4.14510000    0.0504   29.3662
     H     -5.63580000     -0.64980000      0.90440000    0.0818   28.1104
     H     -4.86380000      2.83350000     -1.40270000    0.1719   25.0753
     H     -2.28390000      2.19630000     -0.34580000    0.0457   23.5266
