13
chgs=0 nmr=1 alpha=46.63 b3lypd3vdz=-323.557999839536 
     C     -3.36750000      2.38270000     -0.31390000    0.1976   -5.9973
     O     -4.04740000      2.27800000      0.70320000   -0.2098 -410.4972
     C     -5.95950000     -0.75220000      0.59260000    0.0615  165.9932
     C     -4.17810000     -1.39590000      2.16520000    0.1849   37.7910
     O     -4.36040000     -2.59610000      1.96420000   -0.2913 -102.6878
     N     -4.93360000     -0.42760000      1.58080000   -0.1597  149.1865
     H     -2.28390000      2.19630000     -0.34580000    0.0276   21.3913
     H     -3.79600000      2.66310000     -1.28740000    0.0271   21.3901
     H     -6.64650000     -1.48990000      1.03030000    0.0414   28.3777
     H     -4.60560000      0.53540000      1.61300000    0.0902   26.5602
     H     -5.59000000     -1.27100000     -0.30420000    0.0274   28.9938
     H     -6.50330000      0.16910000      0.33670000    0.0243   29.2893
     H     -3.38120000     -1.05990000      2.84500000   -0.0212   23.2829
