14
chgs=0 nmr=1 alpha=48.12 b3lypd3vdz=-158.300212950559 
     C      2.12680000     -2.09980000      2.16000000   -0.0522   57.2511
     C      1.01760000     -2.42980000      2.95410000   -0.0686   57.4182
     C      1.51630000     -2.25140000     -1.46470000   -0.0730  179.4862
     C      1.36760000     -2.75080000     -2.94330000   -0.0636  181.3873
     H      2.57640000     -2.86320000      1.52270000    0.0345   25.2088
     H      2.53330000     -1.07790000      2.18220000    0.0300   25.0463
     H      0.57880000     -1.66260000      3.60900000    0.0291   25.2361
     H      0.56610000     -3.43290000      2.95190000    0.0303   25.0957
     H      2.30700000     -2.84320000     -0.97730000    0.0211   30.4713
     H      2.19480000     -2.32230000     -3.53340000    0.0187   30.3804
     H      0.58470000     -2.42140000     -0.90500000    0.0269   30.3706
     H      1.82450000     -1.19670000     -1.41380000    0.0220   30.4728
     H      0.44400000     -2.35480000     -3.39070000    0.0208   30.4495
     H      1.40180000     -3.84800000     -3.01410000    0.0238   30.4141
