18
b3lypd3vdz=-363.992026010862 
     C     -1.91270000      0.47570000      1.51600000
     O     -1.83470000     -0.51030000      0.76680000
     N     -4.14050000     -1.27530000     -1.02540000
     C     -3.54700000     -2.02120000     -2.12210000
     C      1.51630000     -2.25140000     -1.46470000
     C      1.94450000     -0.78610000     -1.39400000
     O      1.25770000      0.07870000     -0.82990000
     H     -1.50900000      1.44310000      1.18240000
     H     -2.39240000      0.39280000      2.50240000
     H     -3.49920000     -0.77170000     -0.41380000
     H     -4.37040000     -2.54620000     -2.62940000
     H     -5.09330000     -1.42480000     -0.76120000
     H     -2.83000000     -2.78180000     -1.77940000
     H     -3.04350000     -1.36160000     -2.84420000
     H      2.30700000     -2.84320000     -0.97730000
     H      0.58470000     -2.42140000     -0.90500000
     H      1.41200000     -2.60180000     -2.50220000
     H      2.90130000     -0.55550000     -1.88520000
