20
chgs=0 nmr=1 alpha=69.78 b3lypd3vdz=-328.168736734206 
     C      3.96600000      0.65520000     -1.66450000   -0.0927  178.6630
     C      5.43980000      0.31980000     -1.99600000   -0.0562  181.0383
     C      5.13490000      4.75780000      0.58520000    0.0114  169.3481
     C      4.42820000      3.44170000      0.90960000    0.0839   27.8390
     O      4.96590000      2.35460000      0.66000000   -0.2879  -70.4480
     N      3.18890000      3.51260000      1.46050000   -0.1461  153.3724
     C      2.37390000      2.32220000      1.61150000    0.0548  164.2886
     H      3.89510000      0.83610000     -0.58100000    0.0657   28.8866
     H      5.58910000      0.39330000     -3.08410000    0.0034   30.5959
     H      6.04570000      1.11050000     -1.53420000    0.0264   29.8825
     H      3.33350000     -0.20980000     -1.91290000    0.0028   30.5380
     H      3.68100000      1.60630000     -2.13800000    0.0023   30.8964
     H      5.72960000     -0.67490000     -1.62650000    0.0149   30.5212
     H      5.99190000      4.83530000      1.27870000    0.0581   29.3877
     H      4.47090000      5.61460000      0.77610000    0.0035   30.3115
     H      2.70330000      4.40390000      1.49810000    0.0849   26.9856
     H      2.62670000      1.62560000      0.80080000    0.0542   27.5465
     H      5.50070000      4.80480000     -0.45110000    0.0567   29.5032
     H      1.31330000      2.59870000      1.51820000    0.0208   29.2878
     H      2.56610000      1.80640000      2.56390000    0.0389   28.8348
