15
chgs=0 nmr=1 alpha=53.81 b3lypd3vdz=-382.673521731629 
     C     -1.91270000      0.47570000      1.51600000    0.1785   -6.1792
     O     -1.83470000     -0.51030000      0.76680000   -0.2119 -496.5337
     C      1.51630000     -2.25140000     -1.46470000   -0.0243  138.4395
     C      1.94450000     -0.78610000     -1.39400000    0.1635  -11.0977
     O      1.25770000      0.07870000     -0.82990000   -0.2092 -396.5671
     C      1.36760000     -2.75080000     -2.94330000    0.1245  130.8809
     O      0.17140000     -2.23790000     -3.52280000   -0.2754  281.8316
     H     -1.50900000      1.44310000      1.18240000    0.0234   21.0530
     H     -2.39240000      0.39280000      2.50240000    0.0115   21.0950
     H      2.30700000     -2.84320000     -0.97730000    0.0158   29.4557
     H      2.19480000     -2.32230000     -3.53340000    0.0213   27.2486
     H     -0.55590000     -2.85860000     -3.27480000    0.1514   30.9347
     H      0.58470000     -2.42140000     -0.90500000    0.0306   28.9273
     H      2.90130000     -0.55550000     -1.88520000   -0.0110   21.2787
     H      1.40180000     -3.84800000     -3.01410000    0.0113   27.5195
