18
chgs=0 nmr=1 alpha=70.07 b3lypd3vdz=-235.643122147482 
     C     -3.54840000     -0.67920000      4.55730000   -0.0715  180.5434
     C     -3.88230000      0.82070000      4.57630000   -0.0623  181.3599
     C      0.98480000     -0.15760000      3.80220000   -0.0021   72.5434
     C      2.12680000     -2.09980000      2.16000000    0.0078   70.8128
     C      0.45840000     -1.45210000      3.78880000   -0.0255   53.7154
     C      1.01760000     -2.42980000      2.95410000   -0.0307   52.8902
     H     -4.39500000     -1.32650000      4.82530000    0.0202   30.3944
     H     -2.72210000     -0.89730000      5.25360000    0.0274   30.3577
     H     -4.86980000      0.99170000      4.11760000    0.0201   30.3144
     H     -3.89940000      1.24920000      5.58850000    0.0200   30.3903
     H     -3.20230000     -0.85540000      3.52810000    0.0246   30.1219
     H     -3.09900000      1.26760000      3.94650000    0.0245   30.0856
     H      0.53070000      0.59650000      4.45220000    0.0179   26.1361
     H      2.57640000     -2.86320000      1.52270000    0.0170   26.0817
     H     -0.38490000     -1.72720000      4.42550000   -0.0180   24.9615
     H      1.84490000      0.11660000      3.17370000    0.0237   23.7400
     H      2.53330000     -1.07790000      2.18220000    0.0247   23.5455
     H      0.56610000     -3.43290000      2.95190000   -0.0179   24.8747
