16
chgs=0 nmr=1 alpha=58.1 b3lypd3vdz=-362.87532054268 
     C     -5.44150000     -1.47950000     -0.66470000    0.2053   38.5011
     O     -6.22450000     -2.15670000     -1.31890000   -0.2803  -84.2416
     N     -4.14050000     -1.27530000     -1.02540000   -0.1461  148.0645
     C     -3.54700000     -2.02120000     -2.12210000    0.1372  146.5817
     C     -2.83870000     -1.09330000     -3.13790000    0.0096  121.1622
     O     -1.71160000     -0.46870000     -2.50910000   -0.2810  292.4229
     C     -3.77040000     -0.02030000     -3.68410000    0.0451  171.8860
     H     -3.49920000     -0.77170000     -0.41380000    0.0895   26.5745
     H     -4.37040000     -2.54620000     -2.62940000    0.0353   26.9899
     H     -2.49380000     -1.73900000     -3.96220000   -0.0134   27.7101
     H     -0.90150000     -0.86780000     -2.89010000    0.1493   30.5943
     H     -3.25600000      0.55400000     -4.46900000    0.0121   30.2899
     H     -4.68470000     -0.46680000     -4.10730000    0.0249   30.5105
     H     -4.05240000      0.68150000     -2.88650000    0.0207   29.8564
     H     -5.81100000     -0.96070000      0.23210000   -0.0131   23.0848
     H     -2.83000000     -2.78180000     -1.77940000    0.0049   28.9119
