17
chgs=0 nmr=1 alpha=69.67 b3lypd3vdz=-309.632418865957 
     C      1.51630000     -2.25140000     -1.46470000   -0.0416  157.9853
     C      1.94450000     -0.78610000     -1.39400000    0.1291   -8.2964
     O      1.25770000      0.07870000     -0.82990000   -0.2112 -398.7219
     C      2.64120000     -0.80650000      2.18810000    0.0197   69.9181
     C      2.12680000     -2.09980000      2.16000000   -0.0266   58.2558
     C      0.45840000     -1.45210000      3.78880000    0.0069   68.5633
     C      1.01760000     -2.42980000      2.95410000   -0.0341   53.5792
     H      2.30700000     -2.84320000     -0.97730000    0.0407   29.5556
     H      0.58470000     -2.42140000     -0.90500000    0.0464   29.4840
     H      1.41200000     -2.60180000     -2.50220000    0.0445   29.3179
     H      2.90130000     -0.55550000     -1.88520000   -0.0082   21.2940
     H      3.50920000     -0.57500000      1.56880000    0.0116   26.5897
     H      2.57640000     -2.86320000      1.52270000   -0.0251   25.2692
     H     -0.38490000     -1.72720000      4.42550000    0.0147   25.9912
     H      2.20230000     -0.02440000      2.82510000    0.0280   23.7911
     H      0.87270000     -0.43320000      3.79930000    0.0246   23.5841
     H      0.56610000     -3.43290000      2.95190000   -0.0195   24.8991
