19
chgs=0 nmr=1 alpha=87.66 b3lypd3vdz=-273.709890019583 
     C      2.64120000     -0.80650000      2.18810000   -0.0605   55.5020
     C      2.12680000     -2.09980000      2.16000000   -0.0612   61.8134
     C      6.02880000     -1.42020000     -0.11300000    0.0010   41.8934
     C      6.04520000     -0.70090000      1.09900000   -0.0361   56.8617
     C      6.26560000     -1.40060000      2.28170000    0.0252   65.0605
     C      5.43980000      0.31980000     -1.99600000    0.0362  178.6617
     C      5.83470000     -1.03550000     -1.49250000   -0.1105   49.1378
     H      3.50920000     -0.57500000      1.56880000    0.0412   25.0601
     H      2.57640000     -2.86320000      1.52270000    0.0250   25.3674
     H      2.20230000     -0.02440000      2.82510000    0.0210   25.0685
     H      1.25750000     -2.35840000      2.78240000    0.0239   25.3854
     H      5.87840000      0.37770000      1.10230000   -0.0191   24.2743
     H      6.27140000     -0.86200000      3.23210000    0.0156   26.0891
     H      5.58910000      0.39330000     -3.08410000    0.0303   29.7348
     H      6.04570000      1.11050000     -1.53420000    0.0370   29.2436
     H      6.20500000     -2.50590000     -0.09900000   -0.0283   24.6757
     H      6.42710000     -2.48870000      2.28190000    0.0205   25.5894
     H      4.39210000      0.55820000     -1.76030000    0.0476   29.4115
     H      5.93480000     -1.95560000     -2.08700000   -0.0088   25.2262
