14
chgs=0 nmr=1 alpha=51.35 b3lypd3vdz=-307.520453491517 
     C      1.51630000     -2.25140000     -1.46470000    0.0277  131.7485
     C      1.94450000     -0.78610000     -1.39400000    0.1633  -10.5776
     O      1.25770000      0.07870000     -0.82990000   -0.2110 -393.3227
     C      1.36760000     -2.75080000     -2.94330000    0.0326  125.1244
     O      0.17140000     -2.23790000     -3.52280000   -0.2644  254.1741
     C      1.41510000     -4.27320000     -3.04150000    0.0119  164.4400
     H      2.30700000     -2.84320000     -0.97730000    0.0166   29.2959
     H      2.19480000     -2.32230000     -3.53340000    0.0084   27.1910
     H     -0.55590000     -2.85860000     -3.27480000    0.1457   31.7452
     H      1.34630000     -4.57280000     -4.09850000    0.0283   29.8255
     H      2.34810000     -4.66960000     -2.61180000    0.0217   30.1920
     H      0.56830000     -4.72120000     -2.50170000    0.0146   30.6339
     H      0.58470000     -2.42140000     -0.90500000    0.0141   29.3401
     H      2.90130000     -0.55550000     -1.88520000   -0.0096   21.2701
