13
chgs=0 nmr=1 alpha=50.41 b3lypd3vdz=-377.734590649894 
     C      0.07660000     -3.63300000     -0.06370000    0.1995   35.8527
     O      0.98870000     -4.40750000      0.25670000   -0.2952 -101.8939
     N      0.29000000     -2.47520000     -0.72790000   -0.1338  148.9626
     C      1.51630000     -2.25140000     -1.46470000    0.1125  151.5370
     C      1.94450000     -0.78610000     -1.39400000    0.0503   26.5365
     O      1.25770000      0.07870000     -0.82990000   -0.2704  -81.0905
     N      3.11920000     -0.50300000     -1.99710000   -0.0484  174.2818
     H     -0.46940000     -1.80640000     -0.84560000    0.0945   26.7055
     H      2.30700000     -2.84320000     -0.97730000    0.0599   26.6728
     H      3.66780000     -1.30950000     -2.29190000    0.0895   27.9617
     H     -0.95650000     -3.91430000      0.18850000   -0.0076   22.9762
     H      1.41200000     -2.60180000     -2.50220000    0.0483   28.2774
     H      3.69420000      0.28340000     -1.77130000    0.1010   27.6971
