8
chgs=0 nmr=1 alpha=27.6 b3lypd3vdz=-228.986744942373 
     C     -1.88600000      2.12790000     -0.35750000    0.0120  172.8727
     C     -3.36750000      2.38270000     -0.31390000    0.0959   25.0237
     O     -4.04740000      2.27800000      0.70320000   -0.2607 -105.6317
     O     -3.88670000      2.72240000     -1.49350000   -0.1659  143.3682
     H     -1.37820000      3.00360000     -0.78400000    0.0502   29.4908
     H     -1.69840000      1.28000000     -1.04010000    0.0545   29.3463
     H     -4.86380000      2.83350000     -1.40270000    0.1637   25.7998
     H     -1.50290000      1.90990000      0.65030000    0.0502   29.5723
