15
chgs=0 nmr=1 alpha=50.97 b3lypd3vdz=-233.51791241964 
     C      3.96600000      0.65520000     -1.66450000   -0.0849  179.3886
     C      5.43980000      0.31980000     -1.99600000   -0.0569  181.0164
     C      2.37390000      2.32220000      1.61150000   -0.0526  159.2234
     C      0.90310000      2.70560000      1.48210000    0.1236  -10.5217
     O      0.49730000      3.84920000      1.74780000   -0.2160 -402.1596
     H      3.89510000      0.83610000     -0.58100000    0.0345   30.2665
     H      5.58910000      0.39330000     -3.08410000    0.0211   30.3281
     H      6.04570000      1.11050000     -1.53420000    0.0196   30.3442
     H      3.33350000     -0.20980000     -1.91290000    0.0247   30.1354
     H      3.68100000      1.60630000     -2.13800000    0.0244   30.3059
     H      5.72960000     -0.67490000     -1.62650000    0.0248   30.3736
     H      2.62670000      1.62560000      0.80080000    0.0411   29.1028
     H      2.99190000      3.22490000      1.49700000    0.0458   29.4572
     H      2.56610000      1.80640000      2.56390000    0.0563   29.4109
     H      0.24430000      1.88400000      1.16440000   -0.0056   21.1676
