10
chgs=0 nmr=1 alpha=44.74 b3lypd3vdz=-155.864661190492 
     C      6.02880000     -1.42020000     -0.11300000   -0.0372   42.3247
     C      6.25690000     -2.82580000     -0.09490000   -0.0099   58.7249
     C      6.04520000     -0.70090000      1.09900000   -0.0027   58.5202
     C      6.26560000     -1.40060000      2.28170000    0.0059   73.4751
     H      5.87840000      0.37770000      1.10230000   -0.0160   25.0614
     H      6.27140000     -0.86200000      3.23210000    0.0173   26.1819
     H      5.88110000     -1.12740000     -1.16300000   -0.0170   24.1105
     H      6.21640000     -3.17810000     -1.13620000    0.0143   25.2924
     H      6.42920000     -3.37890000      0.84020000    0.0218   22.8033
     H      6.42710000     -2.48870000      2.28190000    0.0235   23.5556
