12
chgs=0 nmr=1 alpha=46.66 b3lypd3vdz=-157.097441469023 
     C      6.02880000     -1.42020000     -0.11300000   -0.0430   55.0420
     C      3.96600000      0.65520000     -1.66450000   -0.0098  170.1971
     C      5.43980000      0.31980000     -1.99600000    0.0231  165.1453
     C      5.83470000     -1.03550000     -1.49250000   -0.0899   28.8078
     H      3.89510000      0.83610000     -0.58100000    0.0209   30.2815
     H      5.58910000      0.39330000     -3.08410000    0.0123   29.5120
     H      6.04570000      1.11050000     -1.53420000    0.0196   28.9905
     H      6.20500000     -2.50590000     -0.09900000    0.0175   25.5448
     H      6.04160000     -0.85880000      0.83290000    0.0168   24.8354
     H      3.33350000     -0.20980000     -1.91290000    0.0229   30.2859
     H      3.68100000      1.60630000     -2.13800000    0.0146   30.1587
     H      5.93480000     -1.95560000     -2.08700000   -0.0052   23.9832
