7
chgs=0 nmr=1 alpha=20.08 b3lypd3vdz=-95.795999583793 
     N      5.62010000      4.82020000     -0.78950000   -0.1983  242.9580
     C      5.13490000      4.75780000      0.58520000    0.0117  160.8113
     H      6.12690000      3.95360000     -0.98840000    0.0683   31.6980
     H      4.80970000      4.78470000     -1.41320000    0.0690   31.6079
     H      5.99190000      4.83530000      1.27870000    0.0235   28.9319
     H      4.47090000      5.61460000      0.77610000    0.0262   29.0358
     H      4.62640000      3.81080000      0.81860000   -0.0004   28.7235
