10
chgs=0 nmr=1 alpha=36.05 b3lypd3vdz=-193.034392839967 
     C     -3.06370000     -0.92600000      3.11590000   -0.0401  150.8027
     C     -4.17810000     -1.39590000      2.16520000    0.1511  -11.3663
     O     -4.36040000     -2.59610000      1.96420000   -0.2090 -374.5430
     C     -3.54840000     -0.67920000      4.55730000   -0.0320  180.7576
     H     -2.29450000     -1.70630000      3.05990000    0.0298   29.4176
     H     -4.39500000     -1.32650000      4.82530000    0.0338   30.5028
     H     -2.72210000     -0.89730000      5.25360000    0.0348   29.9459
     H     -2.64250000      0.04720000      2.82370000    0.0124   28.7990
     H     -4.78910000     -0.61280000      1.69260000   -0.0112   21.0666
     H     -3.78740000      0.39440000      4.57090000    0.0304   29.7822
