7
chgs=0 nmr=1 alpha=24.87 b3lypd3vdz=-153.75051557506 
     C      5.13490000      4.75780000      0.58520000   -0.0393  163.4132
     C      4.42820000      3.44170000      0.90960000    0.1169  -10.1523
     O      4.96590000      2.35460000      0.66000000   -0.2160 -411.6277
     H      5.99190000      4.83530000      1.27870000    0.0611   29.5448
     H      4.47090000      5.61460000      0.77610000    0.0222   29.3623
     H      5.50070000      4.80480000     -0.45110000    0.0591   29.4091
     H      3.42440000      3.49910000      1.35580000   -0.0040   21.0193
