13
chgs=0 nmr=1 alpha=46.91 b3lypd3vdz=-323.552549803216 
     C     -4.17810000     -1.39590000      2.16520000    0.1883   -8.8438
     O     -4.36040000     -2.59610000      1.96420000   -0.2099 -449.5556
     C     -1.36200000     -4.02470000      0.28750000    0.0638  167.4004
     C     -2.54580000     -3.08320000     -1.64360000    0.1852   37.6848
     O     -1.85310000     -3.71080000     -2.46200000   -0.2993 -107.0066
     N     -2.40610000     -3.22870000     -0.31420000   -0.1359  149.9516
     H     -3.38120000     -1.05990000      2.84500000    0.0288   21.1481
     H     -4.78910000     -0.61280000      1.69260000    0.0315   21.1101
     H     -1.46800000     -3.96920000      1.37910000    0.0168   29.3976
     H     -1.43760000     -5.08370000     -0.00650000    0.0392   28.4733
     H     -3.05840000     -2.77050000      0.31520000    0.0798   27.6803
     H     -0.32890000     -3.74340000      0.03530000    0.0356   28.8831
     H     -3.26280000     -2.32260000     -1.98630000   -0.0242   23.3970
