11
chgs=0 nmr=1 alpha=43.98 b3lypd3vdz=-322.372774809985 
     C      0.07660000     -3.63300000     -0.06370000    0.2010   35.7521
     O      0.98870000     -4.40750000      0.25670000   -0.2908 -106.8824
     N      0.29000000     -2.47520000     -0.72790000   -0.1382  152.8362
     C      1.51630000     -2.25140000     -1.46470000    0.0750  140.1867
     C      1.94450000     -0.78610000     -1.39400000    0.1475   -9.1338
     O      1.25770000      0.07870000     -0.82990000   -0.2111 -356.4356
     H     -0.46940000     -1.80640000     -0.84560000    0.0939   26.5625
     H      2.30700000     -2.84320000     -0.97730000    0.0705   26.1923
     H     -0.95650000     -3.91430000      0.18850000   -0.0052   22.9504
     H      1.41200000     -2.60180000     -2.50220000    0.0527   27.9297
     H      2.90130000     -0.55550000     -1.88520000    0.0045   21.4655
