13
chgs=0 nmr=1 alpha=46.77 b3lypd3vdz=-323.55106687483 
     C     -1.91270000      0.47570000      1.51600000    0.1788   -8.0459
     O     -1.83470000     -0.51030000      0.76680000   -0.2125 -480.5915
     C     -1.36200000     -4.02470000      0.28750000    0.0703  166.2207
     C     -2.54580000     -3.08320000     -1.64360000    0.1928   36.9655
     O     -1.85310000     -3.71080000     -2.46200000   -0.3047 -104.4315
     N     -2.40610000     -3.22870000     -0.31420000   -0.1185  150.8470
     H     -1.50900000      1.44310000      1.18240000    0.0271   21.2924
     H     -2.39240000      0.39280000      2.50240000    0.0221   21.2342
     H     -1.46800000     -3.96920000      1.37910000    0.0123   29.2601
     H     -1.43760000     -5.08370000     -0.00650000    0.0335   28.3519
     H     -3.05840000     -2.77050000      0.31520000    0.0806   26.8290
     H     -0.32890000     -3.74340000      0.03530000    0.0393   28.5477
     H     -3.26280000     -2.32260000     -1.98630000   -0.0211   23.1703
