18
chgs=0 nmr=1 alpha=66.07 b3lypd3vdz=-326.973018956587 
     C      1.51630000     -2.25140000     -1.46470000    0.0253  147.1957
     C      1.94450000     -0.78610000     -1.39400000    0.0962   22.8376
     O      1.25770000      0.07870000     -0.82990000   -0.2824 -101.6058
     C      1.36760000     -2.75080000     -2.94330000   -0.0568  163.5836
     C      1.41510000     -4.27320000     -3.04150000   -0.0049  174.0916
     N      3.11920000     -0.50300000     -1.99710000   -0.1373  163.9509
     C      3.96600000      0.65520000     -1.66450000    0.0573  162.5089
     H      2.30700000     -2.84320000     -0.97730000    0.0105   29.8573
     H      2.19480000     -2.32230000     -3.53340000    0.0002   30.0594
     H      1.34630000     -4.57280000     -4.09850000    0.0162   30.1689
     H      2.34810000     -4.66960000     -2.61180000    0.0151   30.6675
     H      0.56830000     -4.72120000     -2.50170000    0.0244   30.4418
     H      3.66780000     -1.30950000     -2.29190000    0.0877   27.5883
     H      3.89510000      0.83610000     -0.58100000    0.0347   28.4152
     H      0.58470000     -2.42140000     -0.90500000    0.0245   29.3951
     H      0.44400000     -2.35480000     -3.39070000    0.0226   29.7231
     H      3.68100000      1.60630000     -2.13800000    0.0451   28.6389
     H      5.01370000      0.41680000     -1.90020000    0.0215   29.2127
