10
chgs=0 nmr=1 alpha=45.04 b3lypd3vdz=-155.878025595241 
     C      2.08100000      0.19180000      3.00120000   -0.0020   71.5204
     C      0.98480000     -0.15760000      3.80220000   -0.0201   55.3240
     C      0.45840000     -1.45210000      3.78880000   -0.0271   53.2541
     C      1.01760000     -2.42980000      2.95410000    0.0017   69.4800
     H      0.53070000      0.59650000      4.45220000   -0.0202   25.0741
     H     -0.38490000     -1.72720000      4.42550000   -0.0188   24.9102
     H      2.49250000      1.21150000      2.97110000    0.0223   25.8373
     H      2.51990000     -0.59030000      2.36420000    0.0207   23.8360
     H      1.88690000     -2.17120000      2.33170000    0.0234   23.5579
     H      0.56610000     -3.43290000      2.95190000    0.0201   25.8299
