10
chgs=0 nmr=1 alpha=31.62 b3lypd3vdz=-135.079534409827 
     N     -4.14050000     -1.27530000     -1.02540000   -0.2146  245.2110
     C     -3.54700000     -2.02120000     -2.12210000    0.0449  150.8968
     C     -2.83870000     -1.09330000     -3.13790000   -0.0148  168.1080
     H     -3.49920000     -0.77170000     -0.41380000    0.0759   31.5280
     H     -4.37040000     -2.54620000     -2.62940000    0.0088   28.8866
     H     -2.49380000     -1.73900000     -3.96220000    0.0029   30.3914
     H     -5.09330000     -1.42480000     -0.76120000    0.0736   30.6601
     H     -2.83000000     -2.78180000     -1.77940000   -0.0026   28.3381
     H     -1.97400000     -0.61410000     -2.65550000    0.0115   30.4369
     H     -3.51190000     -0.31800000     -3.53260000    0.0145   30.3526
