15
chgs=0 nmr=1 alpha=51.5 b3lypd3vdz=-233.484607384429 
     C      2.12680000     -2.09980000      2.16000000   -0.0525   57.1425
     C      1.01760000     -2.42980000      2.95410000   -0.0686   57.3681
     O      0.17140000     -2.23790000     -3.52280000   -0.2861  282.7541
     C      1.51630000     -2.25140000     -1.46470000   -0.0440  166.9652
     C      1.36760000     -2.75080000     -2.94330000    0.1064  130.0418
     H      2.57640000     -2.86320000      1.52270000    0.0339   25.2266
     H      2.53330000     -1.07790000      2.18220000    0.0313   25.0139
     H      0.57880000     -1.66260000      3.60900000    0.0301   25.2177
     H      0.56610000     -3.43290000      2.95190000    0.0295   25.0941
     H     -0.55590000     -2.85860000     -3.27480000    0.1433   31.3136
     H      2.30700000     -2.84320000     -0.97730000    0.0061   30.5711
     H      2.19480000     -2.32230000     -3.53340000    0.0215   27.6288
     H      0.58470000     -2.42140000     -0.90500000    0.0164   30.5185
     H      1.82450000     -1.19670000     -1.41380000    0.0296   29.8839
     H      1.40180000     -3.84800000     -3.01410000    0.0031   27.7307
