17
chgs=0 nmr=1 alpha=59.46 b3lypd3vdz=-197.590613309776 
     C      3.96600000      0.65520000     -1.66450000   -0.0692  180.3260
     C      5.43980000      0.31980000     -1.99600000   -0.0648  180.9132
     C      2.64600000      1.59200000      2.95990000    0.0109  174.6634
     C      2.08100000      0.19180000      3.00120000   -0.1224   45.8633
     C      2.64120000     -0.80650000      2.18810000   -0.0196   60.8235
     H      3.89510000      0.83610000     -0.58100000    0.0248   30.2498
     H      5.58910000      0.39330000     -3.08410000    0.0208   30.3232
     H      6.04570000      1.11050000     -1.53420000    0.0178   30.3082
     H      3.33350000     -0.20980000     -1.91290000    0.0253   30.1773
     H      3.68100000      1.60630000     -2.13800000    0.0209   30.2787
     H      5.72960000     -0.67490000     -1.62650000    0.0241   30.3375
     H      3.74190000      1.55800000      3.06080000    0.0357   29.2600
     H      2.25480000      2.20950000      3.78430000    0.0224   29.9111
     H      3.50920000     -0.57500000      1.56880000    0.0145   25.3957
     H      2.45380000      2.10780000      2.00750000    0.0450   29.3188
     H      1.22090000     -0.08240000      3.62970000   -0.0040   24.6247
     H      2.23470000     -1.82840000      2.16590000    0.0179   25.4149
