15
chgs=0 nmr=1 alpha=52.59 b3lypd3vdz=-378.901171166438 
     N      0.29000000     -2.47520000     -0.72790000   -0.1716  258.7911
     C      1.51630000     -2.25140000     -1.46470000   -0.0254  134.1120
     C      1.94450000     -0.78610000     -1.39400000    0.1226   24.4248
     O      1.25770000      0.07870000     -0.82990000   -0.2663  -94.5190
     C      1.36760000     -2.75080000     -2.94330000    0.1958  123.0789
     O      0.17140000     -2.23790000     -3.52280000   -0.2784  305.8519
     N      3.11920000     -0.50300000     -1.99710000   -0.0418  174.9129
     H     -0.46940000     -1.80640000     -0.84560000    0.0908   29.8896
     H      2.30700000     -2.84320000     -0.97730000   -0.0017   28.7234
     H      2.19480000     -2.32230000     -3.53340000   -0.0056   27.8804
     H     -0.55590000     -2.85860000     -3.27480000    0.1372   30.0662
     H      3.66780000     -1.30950000     -2.29190000    0.0840   27.9647
     H      0.13210000     -3.33170000     -0.23650000    0.0714   31.7078
     H      1.40180000     -3.84800000     -3.01410000   -0.0045   28.1744
     H      3.69420000      0.28340000     -1.77130000    0.0936   27.7045
