17
chgs=0 nmr=1 alpha=56.34 b3lypd3vdz=-380.064815776359 
     C     -3.36750000      2.38270000     -0.31390000    0.1968   -6.5759
     O     -4.04740000      2.27800000      0.70320000   -0.2128 -409.6679
     C     -1.36200000     -4.02470000      0.28750000    0.0606  164.3431
     N     -2.40610000     -3.22870000     -0.31420000   -0.2439  264.7607
     C     -4.17810000     -1.39590000      2.16520000    0.1692   36.8692
     O     -4.36040000     -2.59610000      1.96420000   -0.2859  -84.8773
     N     -4.93360000     -0.42760000      1.58080000   -0.0773  154.9634
     H     -2.28390000      2.19630000     -0.34580000    0.0299   21.3852
     H     -3.79600000      2.66310000     -1.28740000    0.0271   21.4104
     H     -1.46800000     -3.96920000      1.37910000    0.0209   29.1365
     H     -1.43760000     -5.08370000     -0.00650000   -0.0040   28.7846
     H     -3.05840000     -2.77050000      0.31520000    0.0785   30.8068
     H     -0.32890000     -3.74340000      0.03530000   -0.0111   29.1525
     H     -2.51000000     -3.12050000     -1.30290000    0.0593   32.7308
     H     -4.60560000      0.53540000      1.61300000    0.1028   26.4840
     H     -3.38120000     -1.05990000      2.84500000   -0.0020   23.2163
     H     -5.63580000     -0.64980000      0.90440000    0.0918   27.6633
