17
chgs=0 nmr=1 alpha=78.1 b3lypd3vdz=-309.655996044148 
     C      2.37390000      2.32220000      1.61150000   -0.0109  167.8337
     C      2.64600000      1.59200000      2.95990000    0.0261  163.8244
     C      2.08100000      0.19180000      3.00120000   -0.0851   64.1331
     C      2.64120000     -0.80650000      2.18810000    0.0459   57.7670
     C      2.12680000     -2.09980000      2.16000000   -0.0517   83.2671
     C      1.01760000     -2.42980000      2.95410000    0.1141   40.3551
     O      0.45780000     -3.67340000      2.95140000   -0.1764  201.4912
     H      2.62670000      1.62560000      0.80080000    0.0139   30.7378
     H      3.74190000      1.55800000      3.06080000    0.0142   29.1913
     H      2.25480000      2.20950000      3.78430000   -0.0037   29.7195
     H      3.50920000     -0.57500000      1.56880000   -0.0349   25.4082
     H      2.57640000     -2.86320000      1.52270000   -0.0381   26.3321
     H      0.82970000     -4.18290000      2.20160000    0.1601   27.7084
     H      2.99190000      3.22490000      1.49700000    0.0087   30.1689
     H      1.31330000      2.59870000      1.51820000    0.0161   30.1923
     H      1.22090000     -0.08240000      3.62970000   -0.0245   23.5727
     H      0.57880000     -1.66260000      3.60900000    0.0263   22.3840
