23
chgs=0 nmr=1 alpha=71.78 b3lypd3vdz=-350.397185615196 
     C     -1.35040000      1.82310000      1.05140000   -0.0568  181.7875
     C     -1.88600000      2.12790000     -0.35750000   -0.0819  182.9305
     C     -2.83870000     -1.09330000     -3.13790000    0.0966  144.1706
     O     -1.71160000     -0.46870000     -2.50910000   -0.2954  336.7898
     O      0.17140000     -2.23790000     -3.52280000   -0.2893  275.5502
     C      1.41510000     -4.27320000     -3.04150000   -0.0649  170.3305
     C      1.36760000     -2.75080000     -2.94330000    0.1253  133.2691
     H     -1.61820000      2.64140000      1.72800000    0.0115   30.5898
     H     -1.37820000      3.00360000     -0.78400000    0.0054   30.8381
     H     -1.69840000      1.28000000     -1.04010000    0.0440   29.0658
     H     -0.25490000      1.72910000      1.08280000    0.0090   30.7139
     H     -1.75410000      0.85570000      1.38500000    0.0149   30.4631
     H     -2.96960000      2.31430000     -0.32560000    0.0075   30.7815
     H     -2.49380000     -1.73900000     -3.96220000    0.0016   28.3109
     H     -0.90150000     -0.86780000     -2.89010000    0.1408   28.5031
     H     -3.34220000     -1.75290000     -2.41580000    0.0095   28.1185
     H     -3.51190000     -0.31800000     -3.53260000    0.0291   27.9355
     H     -0.55590000     -2.85860000     -3.27480000    0.1605   31.5477
     H      1.34630000     -4.57280000     -4.09850000    0.0347   29.9174
     H      2.34810000     -4.66960000     -2.61180000    0.0293   30.0649
     H      0.56830000     -4.72120000     -2.50170000    0.0222   30.5876
     H      2.19480000     -2.32230000     -3.53340000    0.0290   27.7019
     H      1.47190000     -2.40040000     -1.90580000    0.0177   27.5897
