11
chgs=0 nmr=1 alpha=35.81 b3lypd3vdz=-119.053507639313 
     C     -5.95950000     -0.75220000      0.59260000   -0.0200  176.1439
     C     -6.72760000      0.54920000      0.23110000   -0.0712  171.9945
     C     -7.17340000      0.66390000     -1.24020000   -0.0229  173.7290
     H     -6.64650000     -1.48990000      1.03030000    0.0151   30.3100
     H     -7.60780000      0.64120000      0.88650000    0.0080   29.9499
     H     -6.07680000      1.40620000      0.44970000    0.0074   30.0851
     H     -6.30940000      0.50900000     -1.90500000    0.0184   30.6051
     H     -7.93760000     -0.07880000     -1.49670000    0.0177   30.4875
     H     -5.18710000     -0.50780000      1.33670000    0.0207   30.0320
     H     -5.59000000     -1.27100000     -0.30420000    0.0124   30.7510
     H     -7.57180000      1.66990000     -1.43800000    0.0145   30.3237
