15
chgs=0 nmr=1 alpha=52.85 b3lypd3vdz=-378.895792830675 
     C      1.57950000      4.49420000     -1.45790000    0.1865    0.2818
     O      2.47210000      5.11220000     -0.91980000   -0.1869 -387.3060
     N      5.62010000      4.82020000     -0.78950000   -0.1793  238.4679
     C      5.13490000      4.75780000      0.58520000    0.0968  144.2512
     C      4.42820000      3.44170000      0.90960000    0.0405   20.9275
     O      4.96590000      2.35460000      0.66000000   -0.2918  -49.9570
     N      3.18890000      3.51260000      1.46050000   -0.0622  163.5646
     H      1.70330000      3.85730000     -2.34620000    0.0234   21.6244
     H      0.55720000      4.43690000     -1.05590000    0.0145   21.6590
     H      6.12690000      3.95360000     -0.98840000    0.0764   30.5593
     H      4.80970000      4.78470000     -1.41320000    0.0639   30.6848
     H      5.99190000      4.83530000      1.27870000    0.0382   28.5911
     H      4.47090000      5.61460000      0.77610000    0.0056   28.3549
     H      2.70330000      4.40390000      1.49810000    0.0909   27.4419
     H      2.62700000      2.69190000      1.56460000    0.0835   28.3040
