8
chgs=0 nmr=1 alpha=24.65 b3lypd3vdz=-79.768429174686 
     C     -6.72760000      0.54920000      0.23110000   -0.0619  181.9738
     C     -7.17340000      0.66390000     -1.24020000   -0.0602  181.7666
     H     -7.60780000      0.64120000      0.88650000    0.0196   30.4186
     H     -6.07680000      1.40620000      0.44970000    0.0189   30.4683
     H     -6.30940000      0.50900000     -1.90500000    0.0197   30.4058
     H     -7.93760000     -0.07880000     -1.49670000    0.0205   30.5199
     H     -6.18380000     -0.37210000      0.48700000    0.0224   30.4833
     H     -7.57180000      1.66990000     -1.43800000    0.0210   30.4633
