12
chgs=0 nmr=1 alpha=34.44 b3lypd3vdz=-231.328122317924 
     C     -2.83870000     -1.09330000     -3.13790000    0.0992  143.9792
     O     -1.71160000     -0.46870000     -2.50910000   -0.3237  337.1103
     O      0.17140000     -2.23790000     -3.52280000   -0.2917  317.6248
     C      1.36760000     -2.75080000     -2.94330000    0.0966  141.6545
     H     -2.49380000     -1.73900000     -3.96220000   -0.0044   28.4260
     H     -0.90150000     -0.86780000     -2.89010000    0.1354   28.7849
     H     -3.34220000     -1.75290000     -2.41580000    0.0056   28.1925
     H     -3.51190000     -0.31800000     -3.53260000    0.0239   27.9954
     H     -0.55590000     -2.85860000     -3.27480000    0.1647   31.2719
     H      2.19480000     -2.32230000     -3.53340000    0.0401   27.7612
     H      1.47190000     -2.40040000     -1.90580000    0.0290   27.6554
     H      1.40180000     -3.84800000     -3.01410000    0.0253   27.8207
