16
chgs=0 nmr=1 alpha=68.94 b3lypd3vdz=-234.39752497906 
     C      2.08100000      0.19180000      3.00120000   -0.0632   59.7229
     C      2.64120000     -0.80650000      2.18810000   -0.0618   51.2604
     C      6.02880000     -1.42020000     -0.11300000   -0.0356   42.6660
     C      6.25690000     -2.82580000     -0.09490000   -0.0089   58.4896
     C      6.04520000     -0.70090000      1.09900000   -0.0183   57.4379
     C      6.26560000     -1.40060000      2.28170000    0.0184   71.1708
     H      3.50920000     -0.57500000      1.56880000    0.0378   24.9365
     H      2.49250000      1.21150000      2.97110000    0.0248   25.0655
     H      1.22090000     -0.08240000      3.62970000    0.0266   25.1482
     H      2.23470000     -1.82840000      2.16590000    0.0240   24.9918
     H      5.87840000      0.37770000      1.10230000   -0.0115   24.9799
     H      6.27140000     -0.86200000      3.23210000    0.0212   26.1360
     H      5.88110000     -1.12740000     -1.16300000   -0.0157   24.0529
     H      6.21640000     -3.17810000     -1.13620000    0.0154   25.2584
     H      6.42920000     -3.37890000      0.84020000    0.0225   22.7470
     H      6.42710000     -2.48870000      2.28190000    0.0242   23.4413
