11
chgs=0 nmr=1 alpha=38.72 b3lypd3vdz=-268.225345070093 
     C     -3.54700000     -2.02120000     -2.12210000   -0.0292  143.7781
     C     -2.54580000     -3.08320000     -1.64360000    0.1631  -19.0858
     O     -1.85310000     -3.71080000     -2.46200000   -0.2283 -380.2869
     C     -2.83870000     -1.09330000     -3.13790000    0.1396  128.5011
     O     -1.71160000     -0.46870000     -2.50910000   -0.2945  305.2556
     H     -4.37040000     -2.54620000     -2.62940000    0.0342   29.8180
     H     -2.49380000     -1.73900000     -3.96220000    0.0232   26.8227
     H     -0.90150000     -0.86780000     -2.89010000    0.1550   30.5394
     H     -3.99630000     -1.45650000     -1.29190000    0.0191   28.4924
     H     -2.43150000     -3.20220000     -0.55600000   -0.0013   20.7213
     H     -3.51190000     -0.31800000     -3.53260000    0.0191   27.7625
