17
chgs=0 nmr=1 alpha=79.26 b3lypd3vdz=-309.657790772046 
     C      2.37390000      2.32220000      1.61150000   -0.0185  172.4668
     C      2.64600000      1.59200000      2.95990000    0.0332  160.0958
     C      2.08100000      0.19180000      3.00120000   -0.0794   65.9754
     C      0.98480000     -0.15760000      3.80220000    0.0418   59.7715
     C      0.45840000     -1.45210000      3.78880000   -0.0074   81.9986
     C      1.01760000     -2.42980000      2.95410000    0.0800   41.8713
     O      0.45780000     -3.67340000      2.95140000   -0.1746  213.4446
     H      2.62670000      1.62560000      0.80080000    0.0099   30.6622
     H      3.74190000      1.55800000      3.06080000    0.0057   29.3551
     H      2.25480000      2.20950000      3.78430000   -0.0006   29.4421
     H      0.53070000      0.59650000      4.45220000   -0.0345   25.4324
     H     -0.38490000     -1.72720000      4.42550000   -0.0259   25.9832
     H      0.82970000     -4.18290000      2.20160000    0.1596   28.3894
     H      2.99190000      3.22490000      1.49700000    0.0097   30.3441
     H      1.31330000      2.59870000      1.51820000    0.0210   30.5582
     H      2.51990000     -0.59030000      2.36420000   -0.0301   24.2124
     H      1.88690000     -2.17120000      2.33170000    0.0101   22.3211
