17
chgs=0 nmr=1 alpha=60.43 b3lypd3vdz=-343.013489852276 
     N     -4.14050000     -1.27530000     -1.02540000   -0.1842  244.4788
     C     -3.54700000     -2.02120000     -2.12210000   -0.0004  131.9187
     C     -2.54580000     -3.08320000     -1.64360000    0.1016   22.5840
     O     -1.85310000     -3.71080000     -2.46200000   -0.2918  -51.2960
     C     -2.83870000     -1.09330000     -3.13790000    0.0180  158.8629
     C     -3.77040000     -0.02030000     -3.68410000    0.0094  177.0170
     N     -2.40610000     -3.22870000     -0.31420000   -0.0436  172.5863
     H     -3.49920000     -0.77170000     -0.41380000    0.0832   31.6259
     H     -4.37040000     -2.54620000     -2.62940000    0.0231   28.7545
     H     -2.49380000     -1.73900000     -3.96220000    0.0262   28.8667
     H     -3.25600000      0.55400000     -4.46900000    0.0107   30.3683
     H     -4.68470000     -0.46680000     -4.10730000    0.0075   30.7775
     H     -4.05240000      0.68150000     -2.88650000    0.0087   29.9399
     H     -3.05840000     -2.77050000      0.31520000    0.0653   25.5013
     H     -5.09330000     -1.42480000     -0.76120000    0.0839   30.4912
     H     -1.97400000     -0.61410000     -2.65550000   -0.0070   30.5731
     H     -1.68320000     -3.77990000      0.10240000    0.0896   27.8870
