15
chgs=0 nmr=1 alpha=71.36 b3lypd3vdz=-271.420645753388 
     C      2.64600000      1.59200000      2.95990000    0.0532  169.6585
     C      2.08100000      0.19180000      3.00120000   -0.0916   55.4209
     C      2.64120000     -0.80650000      2.18810000    0.0227   65.0816
     C      0.98480000     -0.15760000      3.80220000    0.0253   65.7180
     C      2.12680000     -2.09980000      2.16000000    0.0433   65.7342
     C      0.45840000     -1.45210000      3.78880000    0.0375   63.7949
     C      1.01760000     -2.42980000      2.95410000    0.0164   65.5887
     H      3.74190000      1.55800000      3.06080000    0.0319   28.9934
     H      2.25480000      2.20950000      3.78430000    0.0157   29.5002
     H      3.50920000     -0.57500000      1.56880000   -0.0518   24.3555
     H      0.53070000      0.59650000      4.45220000   -0.0475   24.3943
     H      2.57640000     -2.86320000      1.52270000   -0.0319   24.2624
     H     -0.38490000     -1.72720000      4.42550000   -0.0325   24.2407
     H      2.45380000      2.10780000      2.00750000    0.0406   28.9521
     H      0.56610000     -3.43290000      2.95190000   -0.0311   24.2022
