15
chgs=0 nmr=1 alpha=55.61 b3lypd3vdz=-287.69127217964 
     C     -5.95950000     -0.75220000      0.59260000   -0.0013  167.9618
     C     -5.44150000     -1.47950000     -0.66470000    0.0871   31.9484
     O     -6.22450000     -2.15670000     -1.31890000   -0.2787  -62.2794
     N     -4.14050000     -1.27530000     -1.02540000   -0.1474  137.0446
     C     -3.54700000     -2.02120000     -2.12210000    0.0550  156.3831
     C     -2.83870000     -1.09330000     -3.13790000   -0.0330  172.7380
     H     -6.64650000     -1.48990000      1.03030000    0.0491   29.5716
     H     -3.49920000     -0.77170000     -0.41380000    0.0803   27.0764
     H     -4.37040000     -2.54620000     -2.62940000    0.0451   27.0312
     H     -2.49380000     -1.73900000     -3.96220000    0.0215   30.2843
     H     -5.18710000     -0.50780000      1.33670000    0.0083   30.2490
     H     -6.50330000      0.16910000      0.33670000    0.0550   29.3696
     H     -2.83000000     -2.78180000     -1.77940000    0.0165   29.0096
     H     -1.97400000     -0.61410000     -2.65550000    0.0123   30.4435
     H     -3.51190000     -0.31800000     -3.53260000    0.0302   30.3847
