20
chgs=0 nmr=1 alpha=63.3 b3lypd3vdz=-365.203815062777 
     C     -2.83870000     -1.09330000     -3.13790000    0.0996  142.3706
     O     -1.71160000     -0.46870000     -2.50910000   -0.2864  329.7999
     N      0.29000000     -2.47520000     -0.72790000   -0.2608  265.0074
     C      1.51630000     -2.25140000     -1.46470000    0.0486  162.4777
     C     -1.35040000      1.82310000      1.05140000   -0.0326  162.9124
     C     -1.91270000      0.47570000      1.51600000    0.1147  -11.6803
     O     -1.83470000     -0.51030000      0.76680000   -0.2051 -415.2812
     H     -2.49380000     -1.73900000     -3.96220000    0.0095   27.8156
     H     -0.90150000     -0.86780000     -2.89010000    0.1528   31.2382
     H     -3.34220000     -1.75290000     -2.41580000    0.0262   27.6340
     H     -3.51190000     -0.31800000     -3.53260000    0.0248   27.8585
     H     -0.46940000     -1.80640000     -0.84560000    0.0806   30.2372
     H      2.30700000     -2.84320000     -0.97730000    0.0122   28.8650
     H      0.13210000     -3.33170000     -0.23650000    0.0688   31.9402
     H      1.82450000     -1.19670000     -1.41380000    0.0159   28.8249
     H      1.41200000     -2.60180000     -2.50220000   -0.0088   28.3403
     H     -1.61820000      2.64140000      1.72800000    0.0162   29.4989
     H     -0.25490000      1.72910000      1.08280000    0.0608   29.5779
     H     -1.73350000      2.04110000      0.04360000    0.0672   29.1917
     H     -2.39240000      0.39280000      2.50240000   -0.0039   20.9396
