15
chgs=0 nmr=1 alpha=55.01 b3lypd3vdz=-382.682052066321 
     C     -2.54580000     -3.08320000     -1.64360000    0.2092  -14.8384
     O     -1.85310000     -3.71080000     -2.46200000   -0.2389 -422.0583
     C      1.51630000     -2.25140000     -1.46470000   -0.0249  137.4825
     C      1.94450000     -0.78610000     -1.39400000    0.1663  -12.0057
     O      1.25770000      0.07870000     -0.82990000   -0.2185 -387.3370
     C      1.36760000     -2.75080000     -2.94330000    0.1309  132.3306
     O      0.17140000     -2.23790000     -3.52280000   -0.3016  271.0576
     H     -3.26280000     -2.32260000     -1.98630000    0.0409   21.2582
     H     -2.43150000     -3.20220000     -0.55600000    0.0410   21.1062
     H      2.30700000     -2.84320000     -0.97730000    0.0154   29.4847
     H      2.19480000     -2.32230000     -3.53340000    0.0151   27.3779
     H     -0.55590000     -2.85860000     -3.27480000    0.1551   29.6956
     H      0.58470000     -2.42140000     -0.90500000    0.0078   29.5797
     H      2.90130000     -0.55550000     -1.88520000   -0.0090   21.3917
     H      1.40180000     -3.84800000     -3.01410000    0.0114   27.4887
