14
chgs=0 nmr=1 alpha=47.1 b3lypd3vdz=-249.511453319062 
     N     -2.50100000      0.37410000      2.72560000   -0.2324  265.8674
     C     -3.06370000     -0.92600000      3.11590000    0.0376  159.9573
     C      0.45840000     -1.45210000      3.78880000   -0.0515   88.3975
     C      1.01760000     -2.42980000      2.95410000    0.0246   37.6912
     O      0.45780000     -3.67340000      2.95140000   -0.1787  217.5635
     H     -2.29450000     -1.70630000      3.05990000    0.0262   28.2383
     H     -2.06490000      0.44940000      1.82890000    0.0759   31.9198
     H     -2.69620000      1.10040000      3.38470000    0.0756   31.1853
     H     -3.86060000     -1.26200000      2.43610000   -0.0001   28.6935
     H     -3.40980000     -0.74980000      4.14510000    0.0157   29.0373
     H     -0.38490000     -1.72720000      4.42550000    0.0248   26.0519
     H      0.82970000     -4.18290000      2.20160000    0.1571   28.4555
     H      0.87270000     -0.43320000      3.79930000    0.0177   26.4432
     H      1.88690000     -2.17120000      2.33170000    0.0074   24.0578
