16
chgs=0 nmr=1 alpha=59.0 b3lypd3vdz=-271.573735500669 
     C      2.08100000      0.19180000      3.00120000   -0.0560   56.5832
     C      2.64120000     -0.80650000      2.18810000   -0.0715   56.4712
     C      3.96600000      0.65520000     -1.66450000   -0.1001  149.9506
     C      3.56570000      1.99100000     -2.32950000    0.1653   -8.2179
     O      4.40780000      2.72380000     -2.83520000   -0.2008 -352.1813
     C      5.43980000      0.31980000     -1.99600000   -0.0151  180.4362
     H      3.50920000     -0.57500000      1.56880000    0.0323   25.2474
     H      2.49250000      1.21150000      2.97110000    0.0320   24.8836
     H      1.22090000     -0.08240000      3.62970000    0.0332   24.9415
     H      2.23470000     -1.82840000      2.16590000    0.0316   25.0005
     H      3.89510000      0.83610000     -0.58100000    0.0499   29.4937
     H      5.58910000      0.39330000     -3.08410000    0.0306   30.2128
     H      6.04570000      1.11050000     -1.53420000    0.0305   30.0057
     H      3.33350000     -0.20980000     -1.91290000    0.0309   28.8752
     H      2.49780000      2.24810000     -2.27050000   -0.0070   21.1624
     H      5.72960000     -0.67490000     -1.62650000    0.0142   30.5578
