16
chgs=0 nmr=1 alpha=53.77 b3lypd3vdz=-399.938702406552 
     C     -1.91270000      0.47570000      1.51600000    0.1797   -8.3212
     O     -1.83470000     -0.51030000      0.76680000   -0.2165 -476.9218
     O      0.17140000     -2.23790000     -3.52280000   -0.3335  321.2086
     C      1.36760000     -2.75080000     -2.94330000    0.1095  142.7476
     C     -2.54580000     -3.08320000     -1.64360000    0.1972   35.4691
     O     -1.85310000     -3.71080000     -2.46200000   -0.3168  -56.4795
     N     -2.40610000     -3.22870000     -0.31420000   -0.0352  151.8999
     H     -1.50900000      1.44310000      1.18240000    0.0305   21.2679
     H     -2.39240000      0.39280000      2.50240000    0.0219   21.2198
     H     -0.55590000     -2.85860000     -3.27480000    0.1550   28.6345
     H      2.19480000     -2.32230000     -3.53340000    0.0109   28.0727
     H      1.47190000     -2.40040000     -1.90580000   -0.0105   28.0668
     H      1.40180000     -3.84800000     -3.01410000    0.0028   27.9622
     H     -3.05840000     -2.77050000      0.31520000    0.0976   26.5398
     H     -3.26280000     -2.32260000     -1.98630000    0.0084   23.2883
     H     -1.68320000     -3.77990000      0.10240000    0.0991   26.7647
