4
chgs=0 nmr=1 alpha=7.77 b3lypd3vdz=-56.505967940778 
     N     -2.50100000      0.37410000      2.72560000   -0.2482  285.1165
     H     -2.06490000      0.44940000      1.82890000    0.0902   31.4173
     H     -2.88390000     -0.51070000      2.99120000    0.0736   32.5160
     H     -2.69620000      1.10040000      3.38470000    0.0845   31.7279
