14
chgs=0 nmr=1 alpha=48.69 b3lypd3vdz=-303.714222740307 
     N     -2.50100000      0.37410000      2.72560000   -0.1722  224.3505
     C     -3.06370000     -0.92600000      3.11590000   -0.0025  138.2531
     C     -4.17810000     -1.39590000      2.16520000    0.0812   21.3128
     O     -4.36040000     -2.59610000      1.96420000   -0.2764  -68.2582
     C     -3.54840000     -0.67920000      4.55730000    0.0290  163.2649
     N     -4.93360000     -0.42760000      1.58080000   -0.0576  174.5046
     H     -2.29450000     -1.70630000      3.05990000    0.0080   28.2025
     H     -4.39500000     -1.32650000      4.82530000    0.0351   29.7792
     H     -2.72210000     -0.89730000      5.25360000    0.0352   29.2356
     H     -4.60560000      0.53540000      1.61300000    0.0695   25.7848
     H     -2.06490000      0.44940000      1.82890000    0.0801   30.8458
     H     -2.69620000      1.10040000      3.38470000    0.0745   31.0309
     H     -3.78740000      0.39440000      4.57090000    0.0078   31.1275
     H     -5.63580000     -0.64980000      0.90440000    0.0884   28.0319
