14
chgs=0 nmr=1 alpha=49.5 b3lypd3vdz=-303.709347580807 
     C     -5.95950000     -0.75220000      0.59260000    0.0720  164.0578
     N     -2.50100000      0.37410000      2.72560000   -0.2130  251.5991
     C     -3.06370000     -0.92600000      3.11590000    0.0959  142.6257
     C     -4.17810000     -1.39590000      2.16520000    0.0883   24.2437
     O     -4.36040000     -2.59610000      1.96420000   -0.2866  -81.3833
     N     -4.93360000     -0.42760000      1.58080000   -0.1468  162.5014
     H     -6.64650000     -1.48990000      1.03030000    0.0388   28.3739
     H     -2.29450000     -1.70630000      3.05990000    0.0302   28.1354
     H     -4.60560000      0.53540000      1.61300000    0.0628   25.6302
     H     -5.59000000     -1.27100000     -0.30420000    0.0306   28.7506
     H     -6.50330000      0.16910000      0.33670000    0.0171   29.2358
     H     -2.06490000      0.44940000      1.82890000    0.0853   31.2147
     H     -2.69620000      1.10040000      3.38470000    0.0857   30.2761
     H     -3.40980000     -0.74980000      4.14510000    0.0396   28.2932
