16
chgs=0 nmr=1 alpha=58.05 b3lypd3vdz=-362.864600471928 
     C     -5.95950000     -0.75220000      0.59260000    0.0624  165.9509
     C     -4.17810000     -1.39590000      2.16520000    0.1834   37.7368
     O     -4.36040000     -2.59610000      1.96420000   -0.2927 -101.4851
     N     -4.93360000     -0.42760000      1.58080000   -0.1590  149.1178
     C     -1.88600000      2.12790000     -0.35750000   -0.0366  158.7062
     C     -3.36750000      2.38270000     -0.31390000    0.1385   -9.5121
     O     -4.04740000      2.27800000      0.70320000   -0.2211 -325.0899
     H     -6.64650000     -1.48990000      1.03030000    0.0401   28.3972
     H     -4.60560000      0.53540000      1.61300000    0.0924   26.3047
     H     -5.59000000     -1.27100000     -0.30420000    0.0259   29.0056
     H     -6.50330000      0.16910000      0.33670000    0.0255   29.2680
     H     -3.38120000     -1.05990000      2.84500000   -0.0230   23.2593
     H     -1.37820000      3.00360000     -0.78400000    0.0519   29.2138
     H     -1.69840000      1.28000000     -1.04010000    0.0605   29.1955
     H     -1.50290000      1.90990000      0.65030000    0.0474   29.3412
     H     -3.79600000      2.66310000     -1.28740000    0.0044   21.3904
