14
chgs=0 nmr=1 alpha=49.6 b3lypd3vdz=-303.707983795221 
     N      2.23970000      2.31020000     -2.25620000   -0.1618  158.0893
     C      1.75110000      3.61130000     -2.68940000    0.0636  166.7197
     N      3.11920000     -0.50300000     -1.99710000   -0.2169  255.6070
     C      3.96600000      0.65520000     -1.66450000    0.0732  142.1721
     C      3.56570000      1.99100000     -2.32950000    0.1326   27.1055
     O      4.40780000      2.72380000     -2.83520000   -0.2817  -53.0359
     H      1.62560000      1.68770000     -1.72520000    0.0738   27.3363
     H      2.50890000      4.05600000     -3.34560000    0.0560   27.2881
     H      0.79420000      3.49920000     -3.21900000    0.0250   29.1479
     H      3.66780000     -1.30950000     -2.29190000    0.0868   30.9648
     H      3.89510000      0.83610000     -0.58100000    0.0194   27.9271
     H      1.62730000      4.24820000     -1.80110000    0.0273   29.0642
     H      2.24940000     -0.71260000     -1.55050000    0.0696   31.7200
     H      5.01370000      0.41680000     -1.90020000    0.0332   28.4553
