16
chgs=0 nmr=1 alpha=57.56 b3lypd3vdz=-362.859414964165 
     C     -2.54580000     -3.08320000     -1.64360000    0.1658   38.2511
     O     -1.85310000     -3.71080000     -2.46200000   -0.2999  -99.0458
     N     -2.40610000     -3.22870000     -0.31420000   -0.0476  158.6775
     C     -1.35040000      1.82310000      1.05140000   -0.0428  153.6546
     C     -1.91270000      0.47570000      1.51600000    0.1521  -19.2166
     O     -1.83470000     -0.51030000      0.76680000   -0.2218 -379.9122
     C     -1.88600000      2.12790000     -0.35750000   -0.0240  178.7342
     H     -3.05840000     -2.77050000      0.31520000    0.0900   27.0296
     H     -3.26280000     -2.32260000     -1.98630000   -0.0142   23.2113
     H     -1.68320000     -3.77990000      0.10240000    0.0914   27.1696
     H     -1.61820000      2.64140000      1.72800000    0.0136   29.0958
     H     -1.37820000      3.00360000     -0.78400000    0.0214   30.4430
     H     -1.69840000      1.28000000     -1.04010000    0.0465   29.5660
     H     -0.25490000      1.72910000      1.08280000    0.0501   29.5637
     H     -2.39240000      0.39280000      2.50240000   -0.0059   20.7904
     H     -2.96960000      2.31430000     -0.32560000    0.0252   30.6252
