11
chgs=0 nmr=1 alpha=43.68 b3lypd3vdz=-322.370550558071 
     C      1.94450000     -0.78610000     -1.39400000    0.1953   33.4859
     O      1.25770000      0.07870000     -0.82990000   -0.2842 -112.6760
     N      3.11920000     -0.50300000     -1.99710000   -0.1282  152.4339
     C      3.96600000      0.65520000     -1.66450000    0.0567  134.6574
     C      3.56570000      1.99100000     -2.32950000    0.1634   -5.4597
     O      4.40780000      2.72380000     -2.83520000   -0.1983 -364.0561
     H      3.66780000     -1.30950000     -2.29190000    0.0946   27.3835
     H      3.89510000      0.83610000     -0.58100000    0.0538   27.4381
     H      1.63630000     -1.84080000     -1.44490000   -0.0044   23.1445
     H      5.01370000      0.41680000     -1.90020000    0.0341   28.4054
     H      2.49780000      2.24810000     -2.27050000    0.0173   21.2966
