13
chgs=0 nmr=1 alpha=45.94 b3lypd3vdz=-323.552591363111 
     C      1.94450000     -0.78610000     -1.39400000    0.1833   -7.0325
     O      1.25770000      0.07870000     -0.82990000   -0.2096 -458.6423
     C      4.42820000      3.44170000      0.90960000    0.1964   36.4328
     O      4.96590000      2.35460000      0.66000000   -0.2979 -102.5807
     N      3.18890000      3.51260000      1.46050000   -0.1463  150.7892
     C      2.37390000      2.32220000      1.61150000    0.0542  165.0625
     H      1.63630000     -1.84080000     -1.44490000    0.0188   21.2680
     H      2.90130000     -0.55550000     -1.88520000    0.0268   21.3409
     H      2.70330000      4.40390000      1.49810000    0.0826   27.2593
     H      2.62670000      1.62560000      0.80080000    0.0470   27.6588
     H      4.93670000      4.38870000      0.67620000   -0.0141   23.2204
     H      1.31330000      2.59870000      1.51820000    0.0245   29.0811
     H      2.56610000      1.80640000      2.56390000    0.0343   29.0439
