15
chgs=0 nmr=1 alpha=54.38 b3lypd3vdz=-287.683111743348 
     C     -1.35040000      1.82310000      1.05140000   -0.0283  166.6415
     C     -1.91270000      0.47570000      1.51600000    0.0931   24.3670
     O     -1.83470000     -0.51030000      0.76680000   -0.2941  -61.5215
     C     -1.88600000      2.12790000     -0.35750000   -0.0115  178.1463
     N     -2.50100000      0.37410000      2.72560000   -0.1260  160.3382
     C     -2.78870000      1.44460000      3.69700000    0.0579  160.0128
     H     -1.61820000      2.64140000      1.72800000   -0.0066   29.4431
     H     -1.37820000      3.00360000     -0.78400000    0.0082   30.5364
     H     -1.69840000      1.28000000     -1.04010000    0.0444   29.4622
     H     -1.88090000      1.68360000      4.27730000    0.0383   28.3474
     H     -3.13200000      2.35020000      3.17990000    0.0499   28.3139
     H     -0.25490000      1.72910000      1.08280000    0.0416   29.8790
     H     -2.96960000      2.31430000     -0.32560000    0.0190   30.7090
     H     -2.88390000     -0.51070000      2.99120000    0.0791   27.8147
     H     -3.57200000      0.99770000      4.32680000    0.0351   28.7229
