9
chgs=0 nmr=1 alpha=31.02 b3lypd3vdz=-209.061895691293 
     N     -4.14050000     -1.27530000     -1.02540000   -0.2260  259.5927
     C     -3.54700000     -2.02120000     -2.12210000    0.0613  138.3268
     C     -2.54580000     -3.08320000     -1.64360000    0.1415  -25.7656
     O     -1.85310000     -3.71080000     -2.46200000   -0.2221 -404.5638
     H     -3.49920000     -0.77170000     -0.41380000    0.0868   30.6293
     H     -4.37040000     -2.54620000     -2.62940000    0.0490   28.2742
     H     -5.09330000     -1.42480000     -0.76120000    0.0840   30.9177
     H     -3.04350000     -1.36160000     -2.84420000    0.0446   27.9391
     H     -2.43150000     -3.20220000     -0.55600000   -0.0191   21.0009
