10
chgs=0 nmr=1 alpha=34.43 b3lypd3vdz=-284.261611914027 
     C      1.94450000     -0.78610000     -1.39400000    0.1786   -4.1076
     O      1.25770000      0.07870000     -0.82990000   -0.2015 -486.4130
     N     -2.50100000      0.37410000      2.72560000   -0.0645  169.9112
     C     -1.91270000      0.47570000      1.51600000    0.1745   39.1963
     O     -1.83470000     -0.51030000      0.76680000   -0.2873 -112.8378
     H      1.63630000     -1.84080000     -1.44490000    0.0165   21.3324
     H      2.90130000     -0.55550000     -1.88520000    0.0079   21.2870
     H     -2.88390000     -0.51070000      2.99120000    0.0907   27.8862
     H     -2.69620000      1.10040000      3.38470000    0.0834   27.5571
     H     -1.50900000      1.44310000      1.18240000    0.0016   22.9210
