14
chgs=0 nmr=1 alpha=46.18 b3lypd3vdz=-249.529215766 
     C      1.94450000     -0.78610000     -1.39400000    0.1801   -5.5862
     O      1.25770000      0.07870000     -0.82990000   -0.1982 -471.0132
     C      2.64600000      1.59200000      2.95990000   -0.0072  165.0997
     N      3.18890000      3.51260000      1.46050000   -0.2100  247.7923
     C      2.37390000      2.32220000      1.61150000    0.0316  151.4805
     H      1.63630000     -1.84080000     -1.44490000    0.0192   21.2933
     H      2.90130000     -0.55550000     -1.88520000    0.0167   21.2972
     H      3.74190000      1.55800000      3.06080000   -0.0003   30.8077
     H      2.25480000      2.20950000      3.78430000    0.0061   30.2471
     H      2.70330000      4.40390000      1.49810000    0.0741   30.7928
     H      2.62670000      1.62560000      0.80080000    0.0072   28.4588
     H      2.23450000      0.57230000      2.99000000    0.0006   30.5451
     H      4.10140000      3.46040000      1.05490000    0.0687   31.5159
     H      1.31330000      2.59870000      1.51820000    0.0115   28.7324
