15
chgs=0 nmr=1 alpha=54.35 b3lypd3vdz=-287.646453130587 
     C      2.12680000     -2.09980000      2.16000000   -0.0537   57.9406
     C      1.01760000     -2.42980000      2.95410000   -0.0646   57.1054
     N      3.11920000     -0.50300000     -1.99710000   -0.0513  174.0649
     C      1.51630000     -2.25140000     -1.46470000   -0.0131  167.8357
     C      1.94450000     -0.78610000     -1.39400000    0.0376   27.8807
     O      1.25770000      0.07870000     -0.82990000   -0.2716 -110.6570
     H      2.57640000     -2.86320000      1.52270000    0.0228   25.2898
     H      2.53330000     -1.07790000      2.18220000    0.0372   25.0323
     H      0.57880000     -1.66260000      3.60900000    0.0328   25.1682
     H      0.56610000     -3.43290000      2.95190000    0.0273   25.0974
     H      3.66780000     -1.30950000     -2.29190000    0.0815   27.9124
     H      2.30700000     -2.84320000     -0.97730000    0.0311   29.7811
     H      3.69420000      0.28340000     -1.77130000    0.0926   28.0085
     H      0.58470000     -2.42140000     -0.90500000    0.0498   29.7514
     H      1.41200000     -2.60180000     -2.50220000    0.0416   29.4832
