16
chgs=0 nmr=1 alpha=59.08 b3lypd3vdz=-362.877119401304 
     C     -5.95950000     -0.75220000      0.59260000    0.0003  167.8758
     C     -5.44150000     -1.47950000     -0.66470000    0.0862   31.6501
     O     -6.22450000     -2.15670000     -1.31890000   -0.2813  -60.8140
     N     -4.14050000     -1.27530000     -1.02540000   -0.1460  145.2891
     C     -3.54700000     -2.02120000     -2.12210000    0.0924  147.1970
     C     -2.83870000     -1.09330000     -3.13790000    0.1235  125.6367
     O     -1.71160000     -0.46870000     -2.50910000   -0.2941  308.2167
     H     -6.64650000     -1.48990000      1.03030000    0.0479   29.5703
     H     -3.49920000     -0.77170000     -0.41380000    0.0869   26.2135
     H     -4.37040000     -2.54620000     -2.62940000    0.0340   27.2371
     H     -2.49380000     -1.73900000     -3.96220000    0.0027   27.8215
     H     -0.90150000     -0.86780000     -2.89010000    0.1495   30.9504
     H     -5.18710000     -0.50780000      1.33670000    0.0101   30.1617
     H     -6.50330000      0.16910000      0.33670000    0.0552   29.3343
     H     -2.83000000     -2.78180000     -1.77940000    0.0082   28.9526
     H     -3.51190000     -0.31800000     -3.53260000    0.0243   27.8109
