13
chgs=0 nmr=1 alpha=41.93 b3lypd3vdz=-265.607074565644 
     C     -1.36200000     -4.02470000      0.28750000    0.0605  164.3685
     N     -2.40610000     -3.22870000     -0.31420000   -0.2428  264.3340
     C     -4.17810000     -1.39590000      2.16520000    0.1792   37.1673
     O     -4.36040000     -2.59610000      1.96420000   -0.2773  -93.4134
     N     -4.93360000     -0.42760000      1.58080000   -0.0699  162.0478
     H     -1.46800000     -3.96920000      1.37910000    0.0188   29.1391
     H     -1.43760000     -5.08370000     -0.00650000   -0.0036   28.7514
     H     -3.05840000     -2.77050000      0.31520000    0.0768   30.8551
     H     -0.32890000     -3.74340000      0.03530000   -0.0086   29.0986
     H     -2.51000000     -3.12050000     -1.30290000    0.0620   32.5885
     H     -4.60560000      0.53540000      1.61300000    0.1012   27.3408
     H     -3.38120000     -1.05990000      2.84500000    0.0032   23.1670
     H     -5.63580000     -0.64980000      0.90440000    0.1005   27.4304
