13
chgs=0 nmr=1 alpha=49.78 b3lypd3vdz=-381.551659107616 
     C     -1.35040000      1.82310000      1.05140000    0.0052  153.0858
     C     -1.91270000      0.47570000      1.51600000    0.1679  -15.6996
     O     -1.83470000     -0.51030000      0.76680000   -0.2299 -364.6978
     C     -1.88600000      2.12790000     -0.35750000   -0.0132  159.3138
     C     -3.36750000      2.38270000     -0.31390000    0.1676   21.5553
     O     -4.04740000      2.27800000      0.70320000   -0.2631  -90.4024
     O     -3.88670000      2.72240000     -1.49350000   -0.1604  144.3041
     H     -1.61820000      2.64140000      1.72800000    0.0209   28.8016
     H     -1.37820000      3.00360000     -0.78400000    0.0396   29.2144
     H     -1.69840000      1.28000000     -1.04010000    0.0646   28.1463
     H     -4.86380000      2.83350000     -1.40270000    0.1654   25.6622
     H     -0.25490000      1.72910000      1.08280000    0.0352   29.8163
     H     -2.39240000      0.39280000      2.50240000    0.0001   20.8475
