20
chgs=0 nmr=1 alpha=70.98 b3lypd3vdz=-236.836287015932 
     C      2.64120000     -0.80650000      2.18810000   -0.0587   54.7136
     C      2.12680000     -2.09980000      2.16000000   -0.0598   60.9007
     C      1.51630000     -2.25140000     -1.46470000   -0.0700  178.5159
     C      1.36760000     -2.75080000     -2.94330000   -0.0646  181.3188
     C      6.04520000     -0.70090000      1.09900000   -0.0617   59.4316
     C      6.26560000     -1.40060000      2.28170000   -0.0458   56.3503
     H      3.50920000     -0.57500000      1.56880000    0.0327   25.0662
     H      2.57640000     -2.86320000      1.52270000    0.0272   25.4156
     H      2.20230000     -0.02440000      2.82510000    0.0216   25.0922
     H      1.25750000     -2.35840000      2.78240000    0.0238   25.3881
     H      2.30700000     -2.84320000     -0.97730000    0.0206   30.4028
     H      2.19480000     -2.32230000     -3.53340000    0.0177   30.3913
     H      0.58470000     -2.42140000     -0.90500000    0.0243   30.4385
     H      1.82450000     -1.19670000     -1.41380000    0.0243   30.4406
     H      0.44400000     -2.35480000     -3.39070000    0.0203   30.4604
     H      1.40180000     -3.84800000     -3.01410000    0.0230   30.4356
     H      5.87840000      0.37770000      1.10230000    0.0333   25.1831
     H      6.27140000     -0.86200000      3.23210000    0.0293   25.2673
     H      6.03240000     -1.26230000      0.15310000    0.0310   25.1247
     H      6.42710000     -2.48870000      2.28190000    0.0313   24.9809
