17
chgs=0 nmr=1 alpha=90.0 b3lypd3vdz=-272.517714583946 
     C      5.96040000     -2.19040000     -2.23880000    0.0412   54.9450
     C      6.02880000     -1.42020000     -0.11300000    0.0785   37.6476
     C      6.04520000     -0.70090000      1.09900000   -0.0006   74.2337
     C      6.26560000     -1.40060000      2.28170000   -0.0127   53.1646
     C      6.47310000     -2.79860000      2.28190000   -0.0013   72.5701
     C      5.43980000      0.31980000     -1.99600000    0.0564  179.4550
     C      5.83470000     -1.03550000     -1.49250000   -0.2094   43.3310
     H      5.91250000     -2.32370000     -3.31810000   -0.0025   25.7211
     H      5.87840000      0.37770000      1.10230000   -0.0378   25.7611
     H      6.27140000     -0.86200000      3.23210000   -0.0232   24.9431
     H      6.63660000     -3.31610000      3.23010000    0.0086   26.1951
     H      5.58910000      0.39330000     -3.08410000    0.0255   29.4472
     H      6.04570000      1.11050000     -1.53420000    0.0334   29.7192
     H      6.15540000     -3.04570000     -1.57510000    0.0082   25.1024
     H      6.20500000     -2.50590000     -0.09900000   -0.0324   22.6962
     H      6.47580000     -3.37700000      1.34620000    0.0207   24.2034
     H      4.39210000      0.55820000     -1.76030000    0.0474   29.6959
