14
chgs=0 nmr=1 alpha=46.46 b3lypd3vdz=-249.529525140171 
     C     -3.36750000      2.38270000     -0.31390000    0.1945   -2.9565
     O     -4.04740000      2.27800000      0.70320000   -0.1856 -415.0698
     C     -5.95950000     -0.75220000      0.59260000    0.0661  155.5456
     C     -6.72760000      0.54920000      0.23110000   -0.0519  175.5244
     N     -4.93360000     -0.42760000      1.58080000   -0.2360  241.5066
     H     -2.28390000      2.19630000     -0.34580000    0.0271   21.4011
     H     -3.79600000      2.66310000     -1.28740000    0.0234   21.4496
     H     -6.64650000     -1.48990000      1.03030000   -0.0034   28.6521
     H     -7.60780000      0.64120000      0.88650000    0.0214   29.9830
     H     -6.07680000      1.40620000      0.44970000    0.0246   30.1065
     H     -4.60560000      0.53540000      1.61300000    0.0780   31.2584
     H     -5.59000000     -1.27100000     -0.30420000   -0.0227   28.7905
     H     -7.04570000      0.63100000     -0.81870000    0.0029   30.6546
     H     -4.37810000     -1.13950000      2.01050000    0.0617   32.2467
