16
chgs=0 nmr=1 alpha=57.56 b3lypd3vdz=-362.839229750767 
     N      0.29000000     -2.47520000     -0.72790000   -0.1766  267.3288
     C      1.51630000     -2.25140000     -1.46470000   -0.0110  121.4044
     C      1.94450000     -0.78610000     -1.39400000    0.2204  -12.4637
     O      1.25770000      0.07870000     -0.82990000   -0.2091 -365.2026
     C      1.36760000     -2.75080000     -2.94330000    0.0942  125.5344
     O      0.17140000     -2.23790000     -3.52280000   -0.2705  277.1184
     C      1.41510000     -4.27320000     -3.04150000    0.0143  167.5798
     H     -0.46940000     -1.80640000     -0.84560000    0.0890   30.1469
     H      2.30700000     -2.84320000     -0.97730000    0.0062   28.6477
     H      2.19480000     -2.32230000     -3.53340000   -0.0076   27.5504
     H     -0.55590000     -2.85860000     -3.27480000    0.1390   30.8362
     H      1.34630000     -4.57280000     -4.09850000    0.0276   30.0693
     H      2.34810000     -4.66960000     -2.61180000    0.0154   30.5990
     H      0.56830000     -4.72120000     -2.50170000    0.0032   30.4073
     H      0.13210000     -3.33170000     -0.23650000    0.0775   31.3492
     H      2.90130000     -0.55550000     -1.88520000   -0.0120   21.2886
