12
chgs=0 nmr=1 alpha=43.6 b3lypd3vdz=-248.399591207768 
     C     -5.95950000     -0.75220000      0.59260000   -0.0012  167.9784
     C     -5.44150000     -1.47950000     -0.66470000    0.0858   31.6502
     O     -6.22450000     -2.15670000     -1.31890000   -0.2787  -58.7192
     N     -4.14050000     -1.27530000     -1.02540000   -0.1586  153.9955
     C     -3.54700000     -2.02120000     -2.12210000    0.0496  167.5685
     H     -6.64650000     -1.48990000      1.03030000    0.0493   29.5723
     H     -3.49920000     -0.77170000     -0.41380000    0.0830   27.1883
     H     -4.37040000     -2.54620000     -2.62940000    0.0547   27.1176
     H     -5.18710000     -0.50780000      1.33670000    0.0082   30.2584
     H     -6.50330000      0.16910000      0.33670000    0.0556   29.3871
     H     -2.83000000     -2.78180000     -1.77940000    0.0264   29.3402
     H     -3.04350000     -1.36160000     -2.84420000    0.0258   29.3460
