14
chgs=0 nmr=1 alpha=53.73 b3lypd3vdz=-212.427890401536 
     N      3.18890000      3.51260000      1.46050000   -0.2073  248.8824
     C      2.37390000      2.32220000      1.61150000    0.0654  145.9309
     C      2.64600000      1.59200000      2.95990000    0.0695  142.2329
     C      2.08100000      0.19180000      3.00120000   -0.0975   42.6666
     C      0.98480000     -0.15760000      3.80220000   -0.0073   65.6290
     H      2.70330000      4.40390000      1.49810000    0.0778   30.7437
     H      2.62670000      1.62560000      0.80080000    0.0001   28.5639
     H      3.74190000      1.55800000      3.06080000    0.0026   29.4338
     H      2.25480000      2.20950000      3.78430000   -0.0061   29.0103
     H      0.53070000      0.59650000      4.45220000    0.0098   25.7157
     H      4.10140000      3.46040000      1.05490000    0.0737   31.3765
     H      1.31330000      2.59870000      1.51820000    0.0155   28.9156
     H      2.51990000     -0.59030000      2.36420000   -0.0129   24.8058
     H      0.57050000     -1.17650000      3.79170000    0.0168   25.7809
