19
chgs=0 nmr=1 alpha=73.67 b3lypd3vdz=-310.852563909912 
     C      6.02880000     -1.42020000     -0.11300000   -0.0407   54.8701
     C      3.96600000      0.65520000     -1.66450000   -0.0210  169.3138
     C      5.43980000      0.31980000     -1.99600000    0.0291  165.6324
     C      5.83470000     -1.03550000     -1.49250000   -0.0950   28.3683
     C      5.13490000      4.75780000      0.58520000   -0.0382  162.8600
     C      4.42820000      3.44170000      0.90960000    0.1269  -12.1065
     O      4.96590000      2.35460000      0.66000000   -0.2048 -393.8669
     H      3.89510000      0.83610000     -0.58100000    0.0406   29.5599
     H      5.58910000      0.39330000     -3.08410000    0.0015   29.6919
     H      6.04570000      1.11050000     -1.53420000    0.0200   28.6166
     H      6.20500000     -2.50590000     -0.09900000    0.0096   25.5648
     H      6.04160000     -0.85880000      0.83290000    0.0215   24.5333
     H      3.33350000     -0.20980000     -1.91290000    0.0098   30.5510
     H      3.68100000      1.60630000     -2.13800000   -0.0031   30.8739
     H      5.93480000     -1.95560000     -2.08700000   -0.0121   23.9990
     H      5.99190000      4.83530000      1.27870000    0.0640   29.4229
     H      4.47090000      5.61460000      0.77610000    0.0262   29.2179
     H      5.50070000      4.80480000     -0.45110000    0.0618   29.3119
     H      3.42440000      3.49910000      1.35580000    0.0041   20.9533
