17
chgs=0 nmr=1 alpha=57.88 b3lypd3vdz=-383.908013468337 
     O      0.17140000     -2.23790000     -3.52280000   -0.3242  324.4376
     C      1.36760000     -2.75080000     -2.94330000    0.1011  143.2384
     C     -3.54700000     -2.02120000     -2.12210000   -0.0275  141.1788
     C     -2.54580000     -3.08320000     -1.64360000    0.1907  -29.4320
     O     -1.85310000     -3.71080000     -2.46200000   -0.2591 -322.4559
     C     -2.83870000     -1.09330000     -3.13790000    0.1369  130.5313
     O     -1.71160000     -0.46870000     -2.50910000   -0.3163  302.2337
     H     -0.55590000     -2.85860000     -3.27480000    0.1786   28.8615
     H      2.19480000     -2.32230000     -3.53340000    0.0288   27.9182
     H      1.47190000     -2.40040000     -1.90580000    0.0139   28.0374
     H      1.40180000     -3.84800000     -3.01410000    0.0249   27.8284
     H     -4.37040000     -2.54620000     -2.62940000    0.0359   29.8197
     H     -2.49380000     -1.73900000     -3.96220000    0.0196   27.1007
     H     -0.90150000     -0.86780000     -2.89010000    0.1412   27.4817
     H     -3.99630000     -1.45650000     -1.29190000    0.0231   28.3053
     H     -2.43150000     -3.20220000     -0.55600000    0.0151   20.5892
     H     -3.51190000     -0.31800000     -3.53260000    0.0172   27.8860
