9
chgs=0 nmr=1 alpha=31.95 b3lypd3vdz=-209.098652628409 
     C     -1.36200000     -4.02470000      0.28750000    0.0645  166.5218
     C     -2.54580000     -3.08320000     -1.64360000    0.1920   37.2808
     O     -1.85310000     -3.71080000     -2.46200000   -0.2953 -112.3028
     N     -2.40610000     -3.22870000     -0.31420000   -0.1339  156.9253
     H     -1.46800000     -3.96920000      1.37910000    0.0179   29.3075
     H     -1.43760000     -5.08370000     -0.00650000    0.0412   28.3493
     H     -3.05840000     -2.77050000      0.31520000    0.0862   27.3728
     H     -0.32890000     -3.74340000      0.03530000    0.0429   28.6400
     H     -3.26280000     -2.32260000     -1.98630000   -0.0155   23.2539
