17
chgs=0 nmr=1 alpha=65.05 b3lypd3vdz=-251.666239371609 
     N      3.11920000     -0.50300000     -1.99710000   -0.2378  263.4474
     C      3.96600000      0.65520000     -1.66450000    0.0425  162.5171
     C      2.08100000      0.19180000      3.00120000   -0.0294   54.0271
     C      2.64120000     -0.80650000      2.18810000   -0.0279   55.6735
     C      0.98480000     -0.15760000      3.80220000    0.0038   69.7419
     C      2.12680000     -2.09980000      2.16000000    0.0008   73.1463
     H      3.66780000     -1.30950000     -2.29190000    0.0750   31.5757
     H      3.89510000      0.83610000     -0.58100000    0.0040   28.4885
     H      2.24940000     -0.71260000     -1.55050000    0.0764   31.9977
     H      3.68100000      1.60630000     -2.13800000    0.0172   28.9220
     H      5.01370000      0.41680000     -1.90020000    0.0220   29.1268
     H      3.50920000     -0.57500000      1.56880000   -0.0124   24.9647
     H      0.53070000      0.59650000      4.45220000    0.0176   26.0816
     H      2.57640000     -2.86320000      1.52270000    0.0150   26.1612
     H      2.49250000      1.21150000      2.97110000   -0.0135   24.7175
     H      0.57050000     -1.17650000      3.79170000    0.0266   23.4935
     H      1.25750000     -2.35840000      2.78240000    0.0200   23.9574
