18
chgs=0 nmr=1 alpha=76.18 b3lypd3vdz=-289.771621847872 
     N      3.18890000      3.51260000      1.46050000   -0.2057  245.5974
     C      2.37390000      2.32220000      1.61150000    0.0706  140.6676
     C      2.64600000      1.59200000      2.95990000    0.0795  143.2854
     C      2.08100000      0.19180000      3.00120000   -0.1324   42.8528
     C      2.64120000     -0.80650000      2.18810000    0.0158   73.6232
     C      0.98480000     -0.15760000      3.80220000   -0.0122   52.2095
     C      0.45840000     -1.45210000      3.78880000    0.0112   71.2940
     H      2.70330000      4.40390000      1.49810000    0.0778   30.6973
     H      2.62670000      1.62560000      0.80080000    0.0062   28.6010
     H      3.74190000      1.55800000      3.06080000    0.0085   29.1321
     H      2.25480000      2.20950000      3.78430000   -0.0127   29.6055
     H      3.50920000     -0.57500000      1.56880000   -0.0039   26.4089
     H      0.53070000      0.59650000      4.45220000   -0.0346   25.1841
     H     -0.38490000     -1.72720000      4.42550000    0.0128   26.2398
     H      4.10140000      3.46040000      1.05490000    0.0743   31.1197
     H      1.31330000      2.59870000      1.51820000    0.0125   28.5694
     H      2.23470000     -1.82840000      2.16590000    0.0146   24.0328
     H      0.89720000     -2.21930000      3.13390000    0.0178   24.0761
