11
chgs=0 nmr=1 alpha=37.4 b3lypd3vdz=-264.428037128234 
     N     -4.14050000     -1.27530000     -1.02540000   -0.2262  249.0384
     C     -3.54700000     -2.02120000     -2.12210000    0.1017  145.7074
     C     -2.54580000     -3.08320000     -1.64360000    0.0440   24.8599
     O     -1.85310000     -3.71080000     -2.46200000   -0.2935  -61.0553
     N     -2.40610000     -3.22870000     -0.31420000   -0.0443  171.9181
     H     -3.49920000     -0.77170000     -0.41380000    0.0862   31.3386
     H     -4.37040000     -2.54620000     -2.62940000    0.0465   28.4027
     H     -3.05840000     -2.77050000      0.31520000    0.0650   25.5354
     H     -5.09330000     -1.42480000     -0.76120000    0.0845   30.6721
     H     -3.04350000     -1.36160000     -2.84420000    0.0452   28.0244
     H     -1.68320000     -3.77990000      0.10240000    0.0911   27.8208
