17
chgs=0 nmr=1 alpha=70.46 b3lypd3vdz=-309.631758257386 
     C      1.51630000     -2.25140000     -1.46470000   -0.0414  157.5897
     C      1.94450000     -0.78610000     -1.39400000    0.1250   -8.9376
     O      1.25770000      0.07870000     -0.82990000   -0.2125 -395.8621
     C      0.98480000     -0.15760000      3.80220000    0.0093   70.5343
     C      2.12680000     -2.09980000      2.16000000    0.0013   71.7406
     C      0.45840000     -1.45210000      3.78880000   -0.0258   54.9900
     C      1.01760000     -2.42980000      2.95410000   -0.0304   53.0050
     H      2.30700000     -2.84320000     -0.97730000    0.0422   29.5175
     H      0.58470000     -2.42140000     -0.90500000    0.0469   29.3579
     H      1.41200000     -2.60180000     -2.50220000    0.0444   29.3280
     H      2.90130000     -0.55550000     -1.88520000   -0.0072   21.2340
     H      0.53070000      0.59650000      4.45220000    0.0175   26.0881
     H      2.57640000     -2.86320000      1.52270000    0.0130   26.3540
     H     -0.38490000     -1.72720000      4.42550000   -0.0210   25.0667
     H      1.84490000      0.11660000      3.17370000    0.0286   23.7885
     H      2.53330000     -1.07790000      2.18220000    0.0292   23.8058
     H      0.56610000     -3.43290000      2.95190000   -0.0190   24.9357
