12
chgs=0 nmr=1 alpha=38.16 b3lypd3vdz=-285.485117324946 
     N      5.62010000      4.82020000     -0.78950000   -0.2066  243.9194
     C      5.13490000      4.75780000      0.58520000    0.0255  159.7833
     C      1.57950000      4.49420000     -1.45790000    0.2357   36.4402
     O      0.32590000      4.42390000     -0.96490000   -0.1724  130.4536
     O      2.47210000      5.11220000     -0.91980000   -0.2271  -99.2711
     H      6.12690000      3.95360000     -0.98840000    0.0594   32.0557
     H      4.80970000      4.78470000     -1.41320000    0.0639   30.6608
     H      5.99190000      4.83530000      1.27870000    0.0099   29.1259
     H      4.47090000      5.61460000      0.77610000    0.0291   28.7937
     H      4.62640000      3.81080000      0.81860000   -0.0163   29.0717
     H      0.33700000      4.72390000     -0.02600000    0.1690   25.6163
     H      1.70330000      3.85730000     -2.34620000    0.0299   23.6683
