16
chgs=0 nmr=1 alpha=58.05 b3lypd3vdz=-362.865922635878 
     C      1.51630000     -2.25140000     -1.46470000    0.0016  145.3120
     C      1.94450000     -0.78610000     -1.39400000    0.1138   23.8353
     O      1.25770000      0.07870000     -0.82990000   -0.2780 -112.4535
     C      1.36760000     -2.75080000     -2.94330000    0.1368  125.5820
     O      0.17140000     -2.23790000     -3.52280000   -0.2742  281.8579
     N      3.11920000     -0.50300000     -1.99710000   -0.1377  165.3119
     C      3.96600000      0.65520000     -1.66450000    0.0578  162.3908
     H      2.30700000     -2.84320000     -0.97730000    0.0072   29.6038
     H      2.19480000     -2.32230000     -3.53340000    0.0135   27.5490
     H     -0.55590000     -2.85860000     -3.27480000    0.1477   31.1153
     H      3.66780000     -1.30950000     -2.29190000    0.0854   27.6424
     H      3.89510000      0.83610000     -0.58100000    0.0345   28.3643
     H      0.58470000     -2.42140000     -0.90500000    0.0186   29.5589
     H      1.40180000     -3.84800000     -3.01410000    0.0044   27.5248
     H      3.68100000      1.60630000     -2.13800000    0.0474   28.5391
     H      5.01370000      0.41680000     -1.90020000    0.0215   29.1630
