16
chgs=0 nmr=1 alpha=48.36 b3lypd3vdz=-345.775702811725 
     C     -1.91270000      0.47570000      1.51600000    0.1736   -4.9176
     O     -1.83470000     -0.51030000      0.76680000   -0.2012 -510.5813
     C     -2.83870000     -1.09330000     -3.13790000    0.0998  144.0063
     O     -1.71160000     -0.46870000     -2.50910000   -0.3158  336.1827
     O      0.17140000     -2.23790000     -3.52280000   -0.2922  317.8084
     C      1.36760000     -2.75080000     -2.94330000    0.0974  141.6893
     H     -1.50900000      1.44310000      1.18240000    0.0174   21.2056
     H     -2.39240000      0.39280000      2.50240000    0.0105   21.1418
     H     -2.49380000     -1.73900000     -3.96220000   -0.0084   28.4189
     H     -0.90150000     -0.86780000     -2.89010000    0.1337   28.7149
     H     -3.34220000     -1.75290000     -2.41580000    0.0093   28.0933
     H     -3.51190000     -0.31800000     -3.53260000    0.0181   28.0953
     H     -0.55590000     -2.85860000     -3.27480000    0.1659   31.1370
     H      2.19480000     -2.32230000     -3.53340000    0.0370   27.7825
     H      1.47190000     -2.40040000     -1.90580000    0.0315   27.5824
     H      1.40180000     -3.84800000     -3.01410000    0.0235   27.8039
