17
chgs=0 nmr=1 alpha=61.49 b3lypd3vdz=-346.735788800251 
     C      2.12680000     -2.09980000      2.16000000   -0.0570   58.4606
     C      1.01760000     -2.42980000      2.95410000   -0.0584   56.8392
     C     -1.91270000      0.47570000      1.51600000    0.1781   -5.6677
     O     -1.83470000     -0.51030000      0.76680000   -0.2080 -500.5426
     C      1.51630000     -2.25140000     -1.46470000   -0.0447  157.9309
     C      1.94450000     -0.78610000     -1.39400000    0.1242   -9.0135
     O      1.25770000      0.07870000     -0.82990000   -0.2120 -396.3736
     H      2.57640000     -2.86320000      1.52270000    0.0259   25.4602
     H      2.53330000     -1.07790000      2.18220000    0.0338   25.3727
     H      0.57880000     -1.66260000      3.60900000    0.0265   25.4349
     H      0.56610000     -3.43290000      2.95190000    0.0306   25.1655
     H     -1.50900000      1.44310000      1.18240000    0.0211   21.0552
     H     -2.39240000      0.39280000      2.50240000    0.0104   21.1088
     H      2.30700000     -2.84320000     -0.97730000    0.0379   29.6290
     H      0.58470000     -2.42140000     -0.90500000    0.0588   29.0654
     H      1.41200000     -2.60180000     -2.50220000    0.0428   29.3296
     H      2.90130000     -0.55550000     -1.88520000   -0.0100   21.2432
