16
chgs=0 nmr=1 alpha=54.16 b3lypd3vdz=-213.603278927792 
     C      0.98480000     -0.15760000      3.80220000   -0.0517   57.9116
     C      0.45840000     -1.45210000      3.78880000   -0.0585   60.1265
     N     -2.50100000      0.37410000      2.72560000   -0.2046  235.4426
     C     -3.06370000     -0.92600000      3.11590000    0.0550  155.8759
     C     -3.54840000     -0.67920000      4.55730000   -0.0397  168.0717
     H      0.53070000      0.59650000      4.45220000    0.0227   25.2178
     H     -0.38490000     -1.72720000      4.42550000    0.0365   25.1433
     H      1.84490000      0.11660000      3.17370000    0.0259   25.0799
     H      0.89720000     -2.21930000      3.13390000    0.0240   25.1835
     H     -2.29450000     -1.70630000      3.05990000   -0.0022   28.8845
     H     -4.39500000     -1.32650000      4.82530000    0.0164   29.9835
     H     -2.72210000     -0.89730000      5.25360000    0.0264   29.6106
     H     -2.06490000      0.44940000      1.82890000    0.0722   31.5129
     H     -2.69620000      1.10040000      3.38470000    0.0689   32.1634
     H     -3.86060000     -1.26200000      2.43610000   -0.0068   28.7822
     H     -3.78740000      0.39440000      4.57090000    0.0154   31.1835
