13
chgs=0 nmr=1 alpha=48.35 b3lypd3vdz=-232.283586546759 
     C      0.45840000     -1.45210000      3.78880000   -0.0631   55.6784
     C      1.01760000     -2.42980000      2.95410000   -0.0591   55.5997
     C     -3.06370000     -0.92600000      3.11590000   -0.0587  158.6170
     C     -4.17810000     -1.39590000      2.16520000    0.1271   -7.0942
     O     -4.36040000     -2.59610000      1.96420000   -0.2074 -391.1974
     H     -0.38490000     -1.72720000      4.42550000    0.0357   25.1180
     H      0.87270000     -0.43320000      3.79930000    0.0286   25.0092
     H      1.88690000     -2.17120000      2.33170000    0.0322   24.9405
     H      0.56610000     -3.43290000      2.95190000    0.0354   24.8887
     H     -2.29450000     -1.70630000      3.05990000    0.0578   29.1719
     H     -2.64250000      0.04720000      2.82370000    0.0267   29.4934
     H     -3.40980000     -0.74980000      4.14510000    0.0515   29.3686
     H     -4.78910000     -0.61280000      1.69260000   -0.0067   21.2266
