19
chgs=0 nmr=1 alpha=80.74 b3lypd3vdz=-273.689825358195 
     C      6.02880000     -1.42020000     -0.11300000   -0.0349   42.6289
     C      6.25690000     -2.82580000     -0.09490000   -0.0084   58.1437
     C      6.04520000     -0.70090000      1.09900000   -0.0183   57.6153
     C      6.26560000     -1.40060000      2.28170000    0.0181   71.4095
     C      2.64600000      1.59200000      2.95990000    0.0125  175.0125
     C      2.08100000      0.19180000      3.00120000   -0.1277   48.6405
     C      2.64120000     -0.80650000      2.18810000   -0.0124   55.8518
     H      5.87840000      0.37770000      1.10230000   -0.0118   24.8463
     H      6.27140000     -0.86200000      3.23210000    0.0206   26.1051
     H      5.88110000     -1.12740000     -1.16300000   -0.0161   24.0290
     H      6.21640000     -3.17810000     -1.13620000    0.0152   25.2351
     H      6.42920000     -3.37890000      0.84020000    0.0225   22.7327
     H      6.42710000     -2.48870000      2.28190000    0.0244   23.4376
     H      3.74190000      1.55800000      3.06080000    0.0347   29.3129
     H      2.25480000      2.20950000      3.78430000    0.0212   29.9691
     H      3.50920000     -0.57500000      1.56880000    0.0163   25.1633
     H      2.45380000      2.10780000      2.00750000    0.0398   29.3971
     H      1.22090000     -0.08240000      3.62970000   -0.0086   24.7809
     H      2.23470000     -1.82840000      2.16590000    0.0129   25.3847
