10
chgs=0 nmr=1 alpha=35.43 b3lypd3vdz=-284.267394760685 
     C     -4.17810000     -1.39590000      2.16520000    0.1881   -8.7340
     O     -4.36040000     -2.59610000      1.96420000   -0.2103 -453.9139
     C     -2.54580000     -3.08320000     -1.64360000    0.1586   38.8974
     O     -1.85310000     -3.71080000     -2.46200000   -0.2924 -103.4856
     N     -2.40610000     -3.22870000     -0.31420000   -0.0658  158.5408
     H     -3.38120000     -1.05990000      2.84500000    0.0279   21.1592
     H     -4.78910000     -0.61280000      1.69260000    0.0306   21.0881
     H     -3.05840000     -2.77050000      0.31520000    0.0866   27.8847
     H     -3.26280000     -2.32260000     -1.98630000   -0.0166   23.4710
     H     -1.68320000     -3.77990000      0.10240000    0.0934   27.5767
