16
chgs=0 nmr=1 alpha=68.3 b3lypd3vdz=-234.458952525467 
     C      2.37390000      2.32220000      1.61150000   -0.0140  168.6448
     C      2.64600000      1.59200000      2.95990000    0.0268  159.9831
     C      2.08100000      0.19180000      3.00120000   -0.1242   37.6041
     C      2.64120000     -0.80650000      2.18810000    0.0187   72.7001
     C      0.98480000     -0.15760000      3.80220000   -0.0131   52.9513
     C      0.45840000     -1.45210000      3.78880000    0.0123   71.0536
     H      2.62670000      1.62560000      0.80080000    0.0198   30.5025
     H      3.74190000      1.55800000      3.06080000    0.0210   28.9515
     H      2.25480000      2.20950000      3.78430000   -0.0017   29.8972
     H      3.50920000     -0.57500000      1.56880000   -0.0000   26.2804
     H      0.53070000      0.59650000      4.45220000   -0.0325   25.1308
     H     -0.38490000     -1.72720000      4.42550000    0.0146   26.1973
     H      2.99190000      3.22490000      1.49700000    0.0141   30.1205
     H      1.31330000      2.59870000      1.51820000    0.0222   30.1177
     H      2.23470000     -1.82840000      2.16590000    0.0169   23.9050
     H      0.89720000     -2.21930000      3.13390000    0.0189   24.0180
