18
chgs=0 nmr=1 alpha=66.41 b3lypd3vdz=-326.978247928347 
     C     -3.54700000     -2.02120000     -2.12210000    0.0133  149.3166
     C     -2.54580000     -3.08320000     -1.64360000    0.1129   25.6066
     O     -1.85310000     -3.71080000     -2.46200000   -0.2990  -63.9360
     C     -2.83870000     -1.09330000     -3.13790000   -0.0385  164.5026
     C     -3.77040000     -0.02030000     -3.68410000   -0.0028  175.0067
     N     -2.40610000     -3.22870000     -0.31420000   -0.1341  159.1988
     C     -1.36200000     -4.02470000      0.28750000    0.0703  165.8334
     H     -4.37040000     -2.54620000     -2.62940000    0.0319   29.6004
     H     -2.49380000     -1.73900000     -3.96220000    0.0332   29.1418
     H     -3.25600000      0.55400000     -4.46900000    0.0153   30.1765
     H     -4.68470000     -0.46680000     -4.10730000    0.0160   30.5769
     H     -4.05240000      0.68150000     -2.88650000    0.0124   30.6204
     H     -3.05840000     -2.77050000      0.31520000    0.0851   27.1008
     H     -1.46800000     -3.96920000      1.37910000    0.0131   29.4047
     H     -1.43760000     -5.08370000     -0.00650000    0.0371   28.4490
     H     -3.99630000     -1.45650000     -1.29190000   -0.0125   30.1647
     H     -1.97400000     -0.61410000     -2.65550000    0.0069   30.1857
     H     -0.32890000     -3.74340000      0.03530000    0.0394   28.7188
