18
chgs=0 nmr=1 alpha=55.82 b3lypd3vdz=-401.140210278669 
     C     -2.83870000     -1.09330000     -3.13790000    0.1014  144.0650
     O     -1.71160000     -0.46870000     -2.50910000   -0.3104  335.2119
     O      0.17140000     -2.23790000     -3.52280000   -0.2921  317.7145
     C      1.36760000     -2.75080000     -2.94330000    0.0976  141.7697
     N     -2.50100000      0.37410000      2.72560000   -0.0649  170.1587
     C     -1.91270000      0.47570000      1.51600000    0.1720   39.5800
     O     -1.83470000     -0.51030000      0.76680000   -0.2779 -117.8327
     H     -2.49380000     -1.73900000     -3.96220000   -0.0116   28.4732
     H     -0.90150000     -0.86780000     -2.89010000    0.1326   28.8097
     H     -3.34220000     -1.75290000     -2.41580000    0.0095   28.1102
     H     -3.51190000     -0.31800000     -3.53260000    0.0154   28.1078
     H     -0.55590000     -2.85860000     -3.27480000    0.1660   31.1921
     H      2.19480000     -2.32230000     -3.53340000    0.0353   27.8192
     H      1.47190000     -2.40040000     -1.90580000    0.0338   27.5764
     H      1.40180000     -3.84800000     -3.01410000    0.0217   27.8507
     H     -2.88390000     -0.51070000      2.99120000    0.0900   27.9018
     H     -2.69620000      1.10040000      3.38470000    0.0827   27.5885
     H     -1.50900000      1.44310000      1.18240000   -0.0011   23.1039
