19
chgs=0 nmr=1 alpha=82.26 b3lypd3vdz=-273.698805152221 
     C      6.02880000     -1.42020000     -0.11300000   -0.0776   56.7806
     C      6.04520000     -0.70090000      1.09900000   -0.0408   60.0636
     C      2.64600000      1.59200000      2.95990000    0.0463  171.8371
     C      2.08100000      0.19180000      3.00120000   -0.1789   46.5237
     C      2.64120000     -0.80650000      2.18810000    0.0087   69.4168
     C      0.98480000     -0.15760000      3.80220000   -0.0059   52.4441
     C      0.45840000     -1.45210000      3.78880000    0.0109   71.8076
     H      5.87840000      0.37770000      1.10230000    0.0390   25.0709
     H      5.88110000     -1.12740000     -1.16300000    0.0307   24.8478
     H      6.20500000     -2.50590000     -0.09900000    0.0264   25.4566
     H      6.21940000     -1.25390000      2.03380000    0.0406   24.7653
     H      3.74190000      1.55800000      3.06080000    0.0354   29.3092
     H      2.25480000      2.20950000      3.78430000    0.0137   30.3211
     H      3.50920000     -0.57500000      1.56880000    0.0016   25.8811
     H      0.53070000      0.59650000      4.45220000   -0.0343   25.2288
     H     -0.38490000     -1.72720000      4.42550000    0.0125   26.2508
     H      2.45380000      2.10780000      2.00750000    0.0433   29.3233
     H      2.23470000     -1.82840000      2.16590000    0.0099   23.9740
     H      0.89720000     -2.21930000      3.13390000    0.0186   24.1155
