12
chgs=0 nmr=1 alpha=43.96 b3lypd3vdz=-248.39266361956 
     C     -5.44150000     -1.47950000     -0.66470000    0.2031   39.7651
     O     -6.22450000     -2.15670000     -1.31890000   -0.2779  -86.6406
     N     -4.14050000     -1.27530000     -1.02540000   -0.1490  134.7241
     C     -3.54700000     -2.02120000     -2.12210000    0.0538  158.5353
     C     -2.83870000     -1.09330000     -3.13790000   -0.0338  172.7753
     H     -3.49920000     -0.77170000     -0.41380000    0.0829   27.2321
     H     -4.37040000     -2.54620000     -2.62940000    0.0460   26.7811
     H     -2.49380000     -1.73900000     -3.96220000    0.0229   30.2407
     H     -5.81100000     -0.96070000      0.23210000   -0.0141   23.2256
     H     -2.83000000     -2.78180000     -1.77940000    0.0202   29.0506
     H     -1.97400000     -0.61410000     -2.65550000    0.0136   30.3966
     H     -3.51190000     -0.31800000     -3.53260000    0.0323   30.3535
