15
chgs=0 nmr=1 alpha=51.02 b3lypd3vdz=-324.783101883725 
     O      0.17140000     -2.23790000     -3.52280000   -0.3197  280.5558
     C      1.41510000     -4.27320000     -3.04150000   -0.0609  171.7507
     C      1.36760000     -2.75080000     -2.94330000    0.1304  133.2977
     C     -2.54580000     -3.08320000     -1.64360000    0.1977   35.7015
     O     -1.85310000     -3.71080000     -2.46200000   -0.2993  -67.9446
     N     -2.40610000     -3.22870000     -0.31420000   -0.0504  159.4292
     H     -0.55590000     -2.85860000     -3.27480000    0.1554   28.8453
     H      1.34630000     -4.57280000     -4.09850000    0.0225   30.2130
     H      2.34810000     -4.66960000     -2.61180000   -0.0024   30.6178
     H      0.56830000     -4.72120000     -2.50170000    0.0168   29.9976
     H      2.19480000     -2.32230000     -3.53340000    0.0036   27.9302
     H      1.47190000     -2.40040000     -1.90580000   -0.0234   27.9372
     H     -3.05840000     -2.77050000      0.31520000    0.1052   27.0675
     H     -3.26280000     -2.32260000     -1.98630000    0.0172   23.3629
     H     -1.68320000     -3.77990000      0.10240000    0.1073   27.0368
