18
chgs=0 nmr=1 alpha=60.4 b3lypd3vdz=-364.069167179372 
     C     -5.95950000     -0.75220000      0.59260000    0.0697  155.3442
     C     -6.72760000      0.54920000      0.23110000   -0.0569  175.9375
     N     -4.93360000     -0.42760000      1.58080000   -0.2373  245.9708
     C     -1.88600000      2.12790000     -0.35750000    0.0172  172.1979
     C     -3.36750000      2.38270000     -0.31390000    0.1260   23.0154
     O     -4.04740000      2.27800000      0.70320000   -0.2571  -94.9405
     O     -3.88670000      2.72240000     -1.49350000   -0.1606  138.9563
     H     -6.64650000     -1.48990000      1.03030000   -0.0047   28.6042
     H     -7.60780000      0.64120000      0.88650000    0.0226   29.9986
     H     -6.07680000      1.40620000      0.44970000    0.0197   29.7360
     H     -4.60560000      0.53540000      1.61300000    0.0840   30.4615
     H     -5.59000000     -1.27100000     -0.30420000   -0.0229   28.6630
     H     -7.04570000      0.63100000     -0.81870000   -0.0022   30.7467
     H     -4.37810000     -1.13950000      2.01050000    0.0596   32.3514
     H     -1.37820000      3.00360000     -0.78400000    0.0540   29.4144
     H     -1.69840000      1.28000000     -1.04010000    0.0617   29.1964
     H     -4.86380000      2.83350000     -1.40270000    0.1749   25.2886
     H     -1.50290000      1.90990000      0.65030000    0.0523   29.5180
