4
chgs=0 nmr=1 alpha=13.34 b3lypd3vdz=-114.447753959038 
     C      0.07660000     -3.63300000     -0.06370000    0.1760   -5.0123
     O      0.98870000     -4.40750000      0.25670000   -0.2090 -491.1335
     H     -0.95650000     -3.91430000      0.18850000    0.0147   21.3432
     H      0.25030000     -2.69080000     -0.60420000    0.0184   21.1887
