16
chgs=0 nmr=1 alpha=64.46 b3lypd3vdz=-325.702057766651 
     N      3.18890000      3.51260000      1.46050000   -0.1758  245.2934
     C      2.37390000      2.32220000      1.61150000   -0.0270  120.6582
     C      0.90310000      2.70560000      1.48210000    0.2170  -17.3110
     O      0.49730000      3.84920000      1.74780000   -0.2214 -338.6844
     C      2.64600000      1.59200000      2.95990000    0.1008  144.9171
     C      2.08100000      0.19180000      3.00120000   -0.1045   44.6010
     C      2.64120000     -0.80650000      2.18810000   -0.0064   60.6793
     H      2.70330000      4.40390000      1.49810000    0.0835   29.3703
     H      2.62670000      1.62560000      0.80080000   -0.0039   27.7177
     H      3.74190000      1.55800000      3.06080000    0.0202   28.7291
     H      2.25480000      2.20950000      3.78430000    0.0093   29.2725
     H      3.50920000     -0.57500000      1.56880000    0.0126   25.2742
     H      4.10140000      3.46040000      1.05490000    0.0759   31.4074
     H      0.24430000      1.88400000      1.16440000    0.0024   21.0236
     H      1.22090000     -0.08240000      3.62970000   -0.0063   24.5574
     H      2.23470000     -1.82840000      2.16590000    0.0235   25.3171
