12
chgs=0 nmr=1 alpha=43.13 b3lypd3vdz=-248.391948874353 
     C     -1.35040000      1.82310000      1.05140000   -0.0075  175.6817
     C     -1.91270000      0.47570000      1.51600000    0.0532   28.4403
     O     -1.83470000     -0.51030000      0.76680000   -0.2947  -79.8391
     N     -2.50100000      0.37410000      2.72560000   -0.1255  159.2219
     C     -2.78870000      1.44460000      3.69700000    0.0567  159.4249
     H     -1.61820000      2.64140000      1.72800000    0.0011   29.7998
     H     -1.88090000      1.68360000      4.27730000    0.0378   28.3632
     H     -3.13200000      2.35020000      3.17990000    0.0493   28.3626
     H     -0.25490000      1.72910000      1.08280000    0.0576   29.8043
     H     -1.73350000      2.04110000      0.04360000    0.0561   29.7551
     H     -2.88390000     -0.51070000      2.99120000    0.0802   27.8664
     H     -3.57200000      0.99770000      4.32680000    0.0357   28.7112
