12
chgs=0 nmr=1 alpha=42.54 b3lypd3vdz=-248.400424390594 
     C     -5.95950000     -0.75220000      0.59260000   -0.0121  158.2871
     C     -5.44150000     -1.47950000     -0.66470000    0.0727   26.8665
     O     -6.22450000     -2.15670000     -1.31890000   -0.2666  -63.4065
     C     -6.72760000      0.54920000      0.23110000   -0.0186  178.7659
     N     -4.14050000     -1.27530000     -1.02540000   -0.0711  169.2795
     H     -6.64650000     -1.48990000      1.03030000    0.0366   29.3468
     H     -7.60780000      0.64120000      0.88650000    0.0273   30.0255
     H     -6.07680000      1.40620000      0.44970000    0.0169   30.3220
     H     -3.49920000     -0.77170000     -0.41380000    0.0919   27.2277
     H     -5.18710000     -0.50780000      1.33670000   -0.0048   29.5640
     H     -7.04570000      0.63100000     -0.81870000    0.0367   30.1973
     H     -3.73200000     -1.78860000     -1.78020000    0.0913   28.0017
