16
chgs=0 nmr=1 alpha=53.44 b3lypd3vdz=-308.700688052391 
     C     -2.83870000     -1.09330000     -3.13790000    0.0998  142.3108
     O     -1.71160000     -0.46870000     -2.50910000   -0.2630  328.2699
     C     -1.35040000      1.82310000      1.05140000   -0.0397  153.3061
     C     -1.91270000      0.47570000      1.51600000    0.1464  -16.6156
     O     -1.83470000     -0.51030000      0.76680000   -0.2141 -403.2109
     C     -1.88600000      2.12790000     -0.35750000   -0.0423  179.7299
     H     -2.49380000     -1.73900000     -3.96220000    0.0080   27.8456
     H     -0.90150000     -0.86780000     -2.89010000    0.1441   31.3837
     H     -3.34220000     -1.75290000     -2.41580000    0.0284   27.5920
     H     -3.51190000     -0.31800000     -3.53260000    0.0271   27.8627
     H     -1.61820000      2.64140000      1.72800000    0.0027   29.2158
     H     -1.37820000      3.00360000     -0.78400000    0.0052   30.8351
     H     -1.69840000      1.28000000     -1.04010000    0.0614   28.5258
     H     -0.25490000      1.72910000      1.08280000    0.0382   29.7405
     H     -2.39240000      0.39280000      2.50240000   -0.0162   20.7392
     H     -2.96960000      2.31430000     -0.32560000    0.0140   30.8763
