6
chgs=0 nmr=1 alpha=20.65 b3lypd3vdz=-169.813645346353 
     N      3.11920000     -0.50300000     -1.99710000   -0.0664  166.7862
     C      1.94450000     -0.78610000     -1.39400000    0.1660   36.9786
     O      1.25770000      0.07870000     -0.82990000   -0.2791 -119.2011
     H      3.66780000     -1.30950000     -2.29190000    0.0901   28.0375
     H      3.69420000      0.28340000     -1.77130000    0.0977   27.7278
     H      1.63630000     -1.84080000     -1.44490000   -0.0082   23.3357
