17
chgs=0 nmr=1 alpha=57.83 b3lypd3vdz=-288.885191436605 
     C      3.96600000      0.65520000     -1.66450000   -0.0664  179.6604
     C      5.43980000      0.31980000     -1.99600000   -0.0607  180.7632
     C      5.13490000      4.75780000      0.58520000    0.0077  169.9881
     C      4.42820000      3.44170000      0.90960000    0.0533   27.8480
     O      4.96590000      2.35460000      0.66000000   -0.2738  -76.5278
     N      3.18890000      3.51260000      1.46050000   -0.0594  163.5811
     H      3.89510000      0.83610000     -0.58100000    0.0324   29.3491
     H      5.58910000      0.39330000     -3.08410000    0.0048   30.5962
     H      6.04570000      1.11050000     -1.53420000    0.0252   29.9702
     H      3.33350000     -0.20980000     -1.91290000    0.0027   30.5928
     H      3.68100000      1.60630000     -2.13800000    0.0018   30.9455
     H      5.72960000     -0.67490000     -1.62650000    0.0148   30.5497
     H      5.99190000      4.83530000      1.27870000    0.0614   29.3403
     H      4.47090000      5.61460000      0.77610000    0.0053   30.1603
     H      2.70330000      4.40390000      1.49810000    0.0912   27.1614
     H      5.50070000      4.80480000     -0.45110000    0.0598   29.4329
     H      2.62700000      2.69190000      1.56460000    0.0999   27.7047
