14
chgs=0 nmr=1 alpha=45.2 b3lypd3vdz=-249.542730274604 
     N      3.18890000      3.51260000      1.46050000   -0.2330  260.4374
     C      2.37390000      2.32220000      1.61150000    0.0484  162.9406
     C      1.75110000      3.61130000     -2.68940000   -0.0459  161.2715
     C      1.57950000      4.49420000     -1.45790000    0.1209    0.0208
     O      2.47210000      5.11220000     -0.91980000   -0.1919 -341.1339
     H      2.70330000      4.40390000      1.49810000    0.0843   31.4514
     H      2.62670000      1.62560000      0.80080000    0.0025   28.8950
     H      4.10140000      3.46040000      1.05490000    0.0726   32.1851
     H      1.31330000      2.59870000      1.51820000    0.0128   29.1457
     H      2.56610000      1.80640000      2.56390000    0.0101   28.5937
     H      2.50890000      4.05600000     -3.34560000    0.0458   29.6888
     H      0.79420000      3.49920000     -3.21900000    0.0306   29.3135
     H      2.12030000      2.62820000     -2.36210000    0.0612   29.4809
     H      0.55720000      4.43690000     -1.05590000   -0.0185   21.2981
