15
chgs=0 nmr=1 alpha=54.76 b3lypd3vdz=-287.647374343269 
     C      0.45840000     -1.45210000      3.78880000   -0.0634   55.7499
     C      1.01760000     -2.42980000      2.95410000   -0.0589   55.6515
     C     -3.06370000     -0.92600000      3.11590000   -0.0221  167.4252
     C     -4.17810000     -1.39590000      2.16520000    0.0453   30.4928
     O     -4.36040000     -2.59610000      1.96420000   -0.2691  -89.9705
     N     -4.93360000     -0.42760000      1.58080000   -0.0646  168.0507
     H     -0.38490000     -1.72720000      4.42550000    0.0376   25.1357
     H      0.87270000     -0.43320000      3.79930000    0.0268   25.0367
     H      1.88690000     -2.17120000      2.33170000    0.0308   24.9436
     H      0.56610000     -3.43290000      2.95190000    0.0367   24.8740
     H     -2.29450000     -1.70630000      3.05990000    0.0576   29.3649
     H     -4.60560000      0.53540000      1.61300000    0.0903   27.4398
     H     -2.64250000      0.04720000      2.82370000    0.0104   30.1993
     H     -3.40980000     -0.74980000      4.14510000    0.0496   29.3435
     H     -5.63580000     -0.64980000      0.90440000    0.0929   27.9075
