18
chgs=0 nmr=1 alpha=68.47 b3lypd3vdz=-326.932524556813 
     N      3.11920000     -0.50300000     -1.99710000   -0.0662  165.8908
     C      1.94450000     -0.78610000     -1.39400000    0.1711   36.2776
     O      1.25770000      0.07870000     -0.82990000   -0.2708 -115.0994
     C      2.64600000      1.59200000      2.95990000    0.0115  158.6081
     C      2.08100000      0.19180000      3.00120000   -0.0724   39.1279
     C      0.98480000     -0.15760000      3.80220000   -0.0077   66.6127
     C      2.37390000      2.32220000      1.61150000   -0.0208  172.9851
     H      3.66780000     -1.30950000     -2.29190000    0.0911   27.9514
     H      3.69420000      0.28340000     -1.77130000    0.1001   27.6297
     H      1.63630000     -1.84080000     -1.44490000   -0.0014   23.2596
     H      3.74190000      1.55800000      3.06080000    0.0069   29.3613
     H      2.25480000      2.20950000      3.78430000    0.0010   29.2657
     H      0.53070000      0.59650000      4.45220000    0.0092   25.7117
     H      2.62670000      1.62560000      0.80080000    0.0179   30.0917
     H      2.51990000     -0.59030000      2.36420000   -0.0176   24.9073
     H      0.57050000     -1.17650000      3.79170000    0.0154   25.7987
     H      2.99190000      3.22490000      1.49700000    0.0025   30.4737
     H      1.31330000      2.59870000      1.51820000    0.0302   30.3600
