14
chgs=0 nmr=1 alpha=55.7 b3lypd3vdz=-361.67157253956 
     C     -5.95950000     -0.75220000      0.59260000   -0.0016  167.9165
     C     -5.44150000     -1.47950000     -0.66470000    0.0895   30.9030
     O     -6.22450000     -2.15670000     -1.31890000   -0.2696  -67.4675
     N     -4.14050000     -1.27530000     -1.02540000   -0.1611  152.9588
     C     -3.54700000     -2.02120000     -2.12210000    0.0762  141.7958
     C     -2.54580000     -3.08320000     -1.64360000    0.1441  -18.5180
     O     -1.85310000     -3.71080000     -2.46200000   -0.2109 -404.0689
     H     -6.64650000     -1.48990000      1.03030000    0.0540   29.4199
     H     -3.49920000     -0.77170000     -0.41380000    0.0878   26.4136
     H     -4.37040000     -2.54620000     -2.62940000    0.0791   26.4381
     H     -5.18710000     -0.50780000      1.33670000    0.0119   30.0958
     H     -6.50330000      0.16910000      0.33670000    0.0608   29.2583
     H     -3.04350000     -1.36160000     -2.84420000    0.0510   28.4156
     H     -2.43150000     -3.20220000     -0.55600000   -0.0115   21.3576
