14
chgs=0 nmr=1 alpha=48.96 b3lypd3vdz=-303.722271766655 
     N     -4.14050000     -1.27530000     -1.02540000   -0.1906  239.1102
     C     -3.54700000     -2.02120000     -2.12210000   -0.0194  138.0101
     C     -2.54580000     -3.08320000     -1.64360000    0.0996   22.1262
     O     -1.85310000     -3.71080000     -2.46200000   -0.2917  -53.4709
     C     -2.83870000     -1.09330000     -3.13790000    0.0459  165.8496
     N     -2.40610000     -3.22870000     -0.31420000   -0.0437  171.8681
     H     -3.49920000     -0.77170000     -0.41380000    0.0813   31.3642
     H     -4.37040000     -2.54620000     -2.62940000    0.0267   28.3731
     H     -2.49380000     -1.73900000     -3.96220000    0.0363   29.1437
     H     -3.05840000     -2.77050000      0.31520000    0.0655   25.4391
     H     -5.09330000     -1.42480000     -0.76120000    0.0815   30.4029
     H     -1.97400000     -0.61410000     -2.65550000    0.0096   30.5991
     H     -3.51190000     -0.31800000     -3.53260000    0.0090   30.3880
     H     -1.68320000     -3.77990000      0.10240000    0.0902   27.8635
