18
chgs=0 nmr=1 alpha=69.4 b3lypd3vdz=-326.858690878248 
     C      4.42820000      3.44170000      0.90960000    0.1823   -5.1763
     O      4.96590000      2.35460000      0.66000000   -0.1921 -463.3216
     C      6.02880000     -1.42020000     -0.11300000   -0.0290   52.8242
     N      3.11920000     -0.50300000     -1.99710000   -0.2137  245.1991
     C      3.96600000      0.65520000     -1.66450000    0.0840  143.0543
     C      5.43980000      0.31980000     -1.99600000    0.0418  161.5240
     C      5.83470000     -1.03550000     -1.49250000   -0.1127   30.8038
     H      4.93670000      4.38870000      0.67620000    0.0242   21.3382
     H      3.42440000      3.49910000      1.35580000    0.0226   21.3054
     H      3.66780000     -1.30950000     -2.29190000    0.0653   31.6258
     H      3.89510000      0.83610000     -0.58100000    0.0177   27.9654
     H      5.58910000      0.39330000     -3.08410000    0.0089   29.4339
     H      6.04570000      1.11050000     -1.53420000    0.0210   28.6494
     H      6.20500000     -2.50590000     -0.09900000    0.0109   25.4272
     H      6.04160000     -0.85880000      0.83290000    0.0236   24.3061
     H      2.24940000     -0.71260000     -1.55050000    0.0667   31.9681
     H      3.68100000      1.60630000     -2.13800000   -0.0150   29.2052
     H      5.93480000     -1.95560000     -2.08700000   -0.0065   24.1560
