13
chgs=0 nmr=1 alpha=47.36 b3lypd3vdz=-232.329590628183 
     C     -3.54700000     -2.02120000     -2.12210000   -0.0287  142.8358
     C     -2.54580000     -3.08320000     -1.64360000    0.1616  -15.7544
     O     -1.85310000     -3.71080000     -2.46200000   -0.2191 -387.3704
     C     -2.83870000     -1.09330000     -3.13790000   -0.0414  165.4732
     C     -3.77040000     -0.02030000     -3.68410000   -0.0057  175.1700
     H     -4.37040000     -2.54620000     -2.62940000    0.0404   29.5407
     H     -2.49380000     -1.73900000     -3.96220000    0.0311   29.2186
     H     -3.25600000      0.55400000     -4.46900000    0.0184   30.1531
     H     -4.68470000     -0.46680000     -4.10730000    0.0179   30.5283
     H     -4.05240000      0.68150000     -2.88650000    0.0169   30.5809
     H     -3.99630000     -1.45650000     -1.29190000    0.0069   29.1865
     H     -2.43150000     -3.20220000     -0.55600000   -0.0095   20.7564
     H     -1.97400000     -0.61410000     -2.65550000    0.0111   30.1740
