19
chgs=0 nmr=1 alpha=82.57 b3lypd3vdz=-273.704675752628 
     C      6.04520000     -0.70090000      1.09900000   -0.0604   59.1863
     C      6.26560000     -1.40060000      2.28170000   -0.0493   56.7491
     C      2.64600000      1.59200000      2.95990000    0.0273  174.9412
     C      2.08100000      0.19180000      3.00120000   -0.0937   59.5668
     C      2.64120000     -0.80650000      2.18810000    0.0410   52.0367
     C      2.12680000     -2.09980000      2.16000000   -0.0230   55.4408
     C      1.01760000     -2.42980000      2.95410000   -0.0128   74.2487
     H      5.87840000      0.37770000      1.10230000    0.0348   25.0467
     H      6.27140000     -0.86200000      3.23210000    0.0318   25.2428
     H      6.03240000     -1.26230000      0.15310000    0.0314   25.1409
     H      6.42710000     -2.48870000      2.28190000    0.0327   24.9925
     H      3.74190000      1.55800000      3.06080000    0.0332   29.3107
     H      2.25480000      2.20950000      3.78430000    0.0170   29.8944
     H      3.50920000     -0.57500000      1.56880000   -0.0410   24.7489
     H      2.57640000     -2.86320000      1.52270000   -0.0286   25.1282
     H      2.45380000      2.10780000      2.00750000    0.0389   29.4288
     H      1.22090000     -0.08240000      3.62970000   -0.0076   23.3165
     H      0.57880000     -1.66260000      3.60900000    0.0170   24.1920
     H      0.56610000     -3.43290000      2.95190000    0.0111   26.2431
