6
chgs=0 nmr=1 alpha=20.61 b3lypd3vdz=-169.816061467379 
     N     -4.14050000     -1.27530000     -1.02540000   -0.0862  165.6611
     C     -5.44150000     -1.47950000     -0.66470000    0.1701   40.3084
     O     -6.22450000     -2.15670000     -1.31890000   -0.2689 -105.4526
     H     -3.49920000     -0.77170000     -0.41380000    0.0970   27.3986
     H     -3.73200000     -1.78860000     -1.78020000    0.0976   27.6856
     H     -5.81100000     -0.96070000      0.23210000   -0.0096   23.2300
