8
chgs=0 nmr=1 alpha=24.64 b3lypd3vdz=-79.766043212142 
     C      3.96600000      0.65520000     -1.66450000   -0.0617  180.7501
     C      5.43980000      0.31980000     -1.99600000   -0.0629  180.8859
     H      3.89510000      0.83610000     -0.58100000    0.0167   30.3983
     H      5.58910000      0.39330000     -3.08410000    0.0203   30.3526
     H      6.04570000      1.11050000     -1.53420000    0.0187   30.3492
     H      3.33350000     -0.20980000     -1.91290000    0.0236   30.2237
     H      3.68100000      1.60630000     -2.13800000    0.0217   30.3292
     H      5.72960000     -0.67490000     -1.62650000    0.0236   30.3876
