6
chgs=0 nmr=1 alpha=22.42 b3lypd3vdz=-78.517049498091 
     C      6.02880000     -1.42020000     -0.11300000   -0.0539   45.3334
     C      6.25690000     -2.82580000     -0.09490000   -0.0613   44.2895
     H      5.88110000     -1.12740000     -1.16300000    0.0276   24.0725
     H      6.04160000     -0.85880000      0.83290000    0.0306   24.0416
     H      6.21640000     -3.17810000     -1.13620000    0.0262   24.2637
     H      6.42920000     -3.37890000      0.84020000    0.0308   24.1409
