14
chgs=0 nmr=1 alpha=49.38 b3lypd3vdz=-398.813295043003 
     C     -4.17810000     -1.39590000      2.16520000    0.1541   38.7316
     O     -4.36040000     -2.59610000      1.96420000   -0.2857  -98.5123
     N     -4.93360000     -0.42760000      1.58080000   -0.0866  158.4634
     C     -1.88600000      2.12790000     -0.35750000    0.0106  172.4185
     C     -3.36750000      2.38270000     -0.31390000    0.1193   21.8801
     O     -4.04740000      2.27800000      0.70320000   -0.2761  -79.3083
     O     -3.88670000      2.72240000     -1.49350000   -0.1533  136.9079
     H     -4.60560000      0.53540000      1.61300000    0.1037   26.1807
     H     -3.38120000     -1.05990000      2.84500000   -0.0160   23.3584
     H     -5.63580000     -0.64980000      0.90440000    0.0853   27.8729
     H     -1.37820000      3.00360000     -0.78400000    0.0583   29.3514
     H     -1.69840000      1.28000000     -1.04010000    0.0655   29.2057
     H     -4.86380000      2.83350000     -1.40270000    0.1679   25.5155
     H     -1.50290000      1.90990000      0.65030000    0.0531   29.5238
