12
chgs=0 nmr=1 alpha=43.31 b3lypd3vdz=-248.396568263934 
     C     -1.36200000     -4.02470000      0.28750000    0.0091  167.7926
     C      0.07660000     -3.63300000     -0.06370000    0.0746   28.2562
     O      0.98870000     -4.40750000      0.25670000   -0.2956  -70.2256
     N      0.29000000     -2.47520000     -0.72790000   -0.1499  156.5253
     C      1.51630000     -2.25140000     -1.46470000    0.0558  166.3283
     H     -1.46800000     -3.96920000      1.37910000    0.0503   29.4966
     H     -1.43760000     -5.08370000     -0.00650000    0.0563   29.3425
     H     -0.46940000     -1.80640000     -0.84560000    0.0827   27.2666
     H      2.30700000     -2.84320000     -0.97730000    0.0551   27.2115
     H     -2.15720000     -3.41840000     -0.17080000    0.0053   30.2326
     H      1.82450000     -1.19670000     -1.41380000    0.0236   29.2608
     H      1.41200000     -2.60180000     -2.50220000    0.0326   29.0719
