15
b3lypd3vdz=-378.91899486527 
     C      0.07660000     -3.63300000     -0.06370000
     O      0.98870000     -4.40750000      0.25670000
     N      0.29000000     -2.47520000     -0.72790000
     N     -2.50100000      0.37410000      2.72560000
     C     -3.06370000     -0.92600000      3.11590000
     C     -1.91270000      0.47570000      1.51600000
     O     -1.83470000     -0.51030000      0.76680000
     H     -0.46940000     -1.80640000     -0.84560000
     H     -0.95650000     -3.91430000      0.18850000
     H      1.13690000     -2.32060000     -1.23670000
     H     -2.29450000     -1.70630000      3.05990000
     H     -2.69620000      1.10040000      3.38470000
     H     -3.86060000     -1.26200000      2.43610000
     H     -3.40980000     -0.74980000      4.14510000
     H     -1.50900000      1.44310000      1.18240000
