10
chgs=0 nmr=1 alpha=35.27 b3lypd3vdz=-284.266290077771 
     C     -1.91270000      0.47570000      1.51600000    0.1781   -7.8074
     O     -1.83470000     -0.51030000      0.76680000   -0.2125 -481.5906
     C     -2.54580000     -3.08320000     -1.64360000    0.1669   38.2171
     O     -1.85310000     -3.71080000     -2.46200000   -0.2983 -100.5380
     N     -2.40610000     -3.22870000     -0.31420000   -0.0493  159.2358
     H     -1.50900000      1.44310000      1.18240000    0.0268   21.2871
     H     -2.39240000      0.39280000      2.50240000    0.0217   21.2387
     H     -3.05840000     -2.77050000      0.31520000    0.0883   27.0872
     H     -3.26280000     -2.32260000     -1.98630000   -0.0137   23.2286
     H     -1.68320000     -3.77990000      0.10240000    0.0919   27.1716
