13
chgs=0 nmr=1 alpha=59.39 b3lypd3vdz=-195.169356452312 
     C      2.64600000      1.59200000      2.95990000    0.0284  174.6051
     C      2.08100000      0.19180000      3.00120000   -0.0878   57.3474
     C      2.64120000     -0.80650000      2.18810000    0.0289   55.9113
     C      2.12680000     -2.09980000      2.16000000   -0.0185   55.2872
     C      1.01760000     -2.42980000      2.95410000   -0.0116   73.7462
     H      3.74190000      1.55800000      3.06080000    0.0350   29.3417
     H      2.25480000      2.20950000      3.78430000    0.0181   29.8763
     H      3.50920000     -0.57500000      1.56880000   -0.0376   25.2116
     H      2.57640000     -2.86320000      1.52270000   -0.0240   25.0722
     H      2.45380000      2.10780000      2.00750000    0.0407   29.4083
     H      1.22090000     -0.08240000      3.62970000   -0.0031   23.1393
     H      0.57880000     -1.66260000      3.60900000    0.0181   24.1363
     H      0.56610000     -3.43290000      2.95190000    0.0134   26.1746
