20
chgs=0 nmr=1 alpha=71.54 b3lypd3vdz=-236.879113442434 
     C      3.96600000      0.65520000     -1.66450000   -0.0834  178.8594
     C      5.43980000      0.31980000     -1.99600000   -0.0594  180.8934
     C      2.64600000      1.59200000      2.95990000    0.0075  163.6359
     C      2.08100000      0.19180000      3.00120000   -0.0859   37.9357
     C      2.64120000     -0.80650000      2.18810000   -0.0117   60.8213
     C      2.37390000      2.32220000      1.61150000   -0.0306  167.5959
     H      3.89510000      0.83610000     -0.58100000    0.0407   29.9739
     H      5.58910000      0.39330000     -3.08410000    0.0185   30.3315
     H      6.04570000      1.11050000     -1.53420000    0.0174   30.2940
     H      3.33350000     -0.20980000     -1.91290000    0.0242   30.1535
     H      3.68100000      1.60630000     -2.13800000    0.0213   30.2999
     H      5.72960000     -0.67490000     -1.62650000    0.0240   30.3413
     H      3.74190000      1.55800000      3.06080000    0.0214   28.9790
     H      2.25480000      2.20950000      3.78430000    0.0070   29.5604
     H      3.50920000     -0.57500000      1.56880000    0.0135   25.3672
     H      2.62670000      1.62560000      0.80080000    0.0370   30.1815
     H      1.22090000     -0.08240000      3.62970000   -0.0110   24.2694
     H      2.23470000     -1.82840000      2.16590000    0.0179   25.3491
     H      2.99190000      3.22490000      1.49700000    0.0122   30.1323
     H      1.31330000      2.59870000      1.51820000    0.0196   30.1031
