17
chgs=0 nmr=1 alpha=65.81 b3lypd3vdz=-251.664602675757 
     N      0.29000000     -2.47520000     -0.72790000   -0.2375  259.6889
     C      1.51630000     -2.25140000     -1.46470000    0.0548  161.8938
     C      0.98480000     -0.15760000      3.80220000   -0.0002   73.7427
     C      2.12680000     -2.09980000      2.16000000    0.0241   68.2473
     C      0.45840000     -1.45210000      3.78880000   -0.0247   54.0872
     C      1.01760000     -2.42980000      2.95410000   -0.0313   53.4231
     H     -0.46940000     -1.80640000     -0.84560000    0.0782   31.7391
     H      2.30700000     -2.84320000     -0.97730000    0.0138   28.8813
     H      0.13210000     -3.33170000     -0.23650000    0.0727   32.0105
     H      1.82450000     -1.19670000     -1.41380000    0.0183   28.8492
     H      1.41200000     -2.60180000     -2.50220000    0.0041   28.3173
     H      0.53070000      0.59650000      4.45220000    0.0142   26.2307
     H      2.57640000     -2.86320000      1.52270000    0.0156   25.9429
     H     -0.38490000     -1.72720000      4.42550000   -0.0227   25.0618
     H      1.84490000      0.11660000      3.17370000    0.0219   23.7748
     H      2.53330000     -1.07790000      2.18220000    0.0232   23.4012
     H      0.56610000     -3.43290000      2.95190000   -0.0245   25.0298
