6
chgs=0 nmr=1 alpha=22.86 b3lypd3vdz=-78.514977442477 
     C      6.02880000     -1.42020000     -0.11300000   -0.0733   45.7502
     C      5.83470000     -1.03550000     -1.49250000   -0.0576   48.7560
     H      6.20500000     -2.50590000     -0.09900000    0.0275   24.9213
     H      6.04160000     -0.85880000      0.83290000    0.0344   24.4825
     H      5.54490000     -0.04080000     -1.86200000    0.0370   24.4341
     H      5.93480000     -1.95560000     -2.08700000    0.0319   24.5007
