10
chgs=0 nmr=1 alpha=31.13 b3lypd3vdz=-135.076495142142 
     N      3.11920000     -0.50300000     -1.99710000   -0.2163  242.2126
     C      3.96600000      0.65520000     -1.66450000    0.0564  153.0458
     C      5.43980000      0.31980000     -1.99600000   -0.0447  171.9467
     H      3.66780000     -1.30950000     -2.29190000    0.0685   32.0518
     H      3.89510000      0.83610000     -0.58100000   -0.0050   28.3635
     H      5.58910000      0.39330000     -3.08410000    0.0283   29.9853
     H      6.04570000      1.11050000     -1.53420000    0.0178   30.2395
     H      2.24940000     -0.71260000     -1.55050000    0.0696   31.5389
     H      3.68100000      1.60630000     -2.13800000    0.0053   28.6769
     H      5.72960000     -0.67490000     -1.62650000    0.0202   30.6554
