16
chgs=0 nmr=1 alpha=72.6 b3lypd3vdz=-234.462083431184 
     C      2.37390000      2.32220000      1.61150000   -0.0218  173.4571
     C      2.64600000      1.59200000      2.95990000    0.0276  159.9755
     C      2.08100000      0.19180000      3.00120000   -0.0501   51.0037
     C      0.98480000     -0.15760000      3.80220000    0.0324   60.0705
     C      0.45840000     -1.45210000      3.78880000   -0.0261   52.9017
     C      1.01760000     -2.42980000      2.95410000   -0.0010   71.3976
     H      2.62670000      1.62560000      0.80080000    0.0160   30.4967
     H      3.74190000      1.55800000      3.06080000    0.0131   29.2415
     H      2.25480000      2.20950000      3.78430000    0.0034   29.2575
     H      0.53070000      0.59650000      4.45220000   -0.0326   25.3554
     H     -0.38490000     -1.72720000      4.42550000   -0.0231   25.0389
     H      2.99190000      3.22490000      1.49700000    0.0150   30.2594
     H      1.31330000      2.59870000      1.51820000    0.0247   30.5193
     H      2.51990000     -0.59030000      2.36420000   -0.0121   23.2638
     H      1.88690000     -2.17120000      2.33170000    0.0210   23.8268
     H      0.56610000     -3.43290000      2.95190000    0.0134   25.9892
