15
chgs=0 nmr=1 alpha=54.54 b3lypd3vdz=-287.686307301692 
     C     -1.35040000      1.82310000      1.05140000   -0.0017  161.0067
     C     -1.91270000      0.47570000      1.51600000    0.1287   25.3073
     O     -1.83470000     -0.51030000      0.76680000   -0.3026  -66.6741
     C     -1.88600000      2.12790000     -0.35750000   -0.0150  177.4908
     N     -2.50100000      0.37410000      2.72560000   -0.1467  157.9403
     C     -3.06370000     -0.92600000      3.11590000    0.0655  161.5758
     H     -1.61820000      2.64140000      1.72800000   -0.0093   30.0096
     H     -1.37820000      3.00360000     -0.78400000    0.0084   30.5451
     H     -1.69840000      1.28000000     -1.04010000    0.0439   29.4583
     H     -2.29450000     -1.70630000      3.05990000    0.0428   28.3455
     H     -0.25490000      1.72910000      1.08280000    0.0391   29.6122
     H     -2.96960000      2.31430000     -0.32560000    0.0197   30.6692
     H     -2.69620000      1.10040000      3.38470000    0.0774   26.8705
     H     -3.86060000     -1.26200000      2.43610000    0.0398   28.5162
     H     -3.40980000     -0.74980000      4.14510000    0.0101   29.2604
