13
chgs=0 nmr=1 alpha=41.88 b3lypd3vdz=-269.456132821143 
     C     -2.83870000     -1.09330000     -3.13790000   -0.0601  181.7992
     C     -3.77040000     -0.02030000     -3.68410000   -0.0671  181.7163
     C     -3.36750000      2.38270000     -0.31390000    0.2301   35.5902
     O     -4.04740000      2.27800000      0.70320000   -0.2564 -120.5039
     O     -3.88670000      2.72240000     -1.49350000   -0.1526  128.5657
     H     -2.49380000     -1.73900000     -3.96220000    0.0195   30.3650
     H     -3.25600000      0.55400000     -4.46900000    0.0188   30.4993
     H     -4.68470000     -0.46680000     -4.10730000    0.0170   30.5176
     H     -4.05240000      0.68150000     -2.88650000    0.0113   30.1784
     H     -3.34220000     -1.75290000     -2.41580000    0.0196   30.5365
     H     -1.97400000     -0.61410000     -2.65550000    0.0164   30.4790
     H     -4.86380000      2.83350000     -1.40270000    0.1703   25.4402
     H     -2.28390000      2.19630000     -0.34580000    0.0331   23.5546
