12
chgs=0 nmr=1 alpha=43.67 b3lypd3vdz=-248.388863809048 
     C      0.07660000     -3.63300000     -0.06370000    0.2006   36.7076
     O      0.98870000     -4.40750000      0.25670000   -0.2923 -101.7400
     N      0.29000000     -2.47520000     -0.72790000   -0.1321  136.5917
     C      1.51630000     -2.25140000     -1.46470000    0.0462  157.1368
     C      1.36760000     -2.75080000     -2.94330000   -0.0302  171.8409
     H     -0.46940000     -1.80640000     -0.84560000    0.0841   27.0558
     H      2.30700000     -2.84320000     -0.97730000    0.0480   26.7230
     H      2.19480000     -2.32230000     -3.53340000    0.0168   30.4845
     H     -0.95650000     -3.91430000      0.18850000   -0.0125   23.0548
     H      1.82450000     -1.19670000     -1.41380000    0.0163   29.0486
     H      0.44400000     -2.35480000     -3.39070000    0.0107   30.7021
     H      1.40180000     -3.84800000     -3.01410000    0.0444   29.8575
