16
chgs=0 nmr=1 alpha=68.61 b3lypd3vdz=-234.404913339874 
     C      2.64120000     -0.80650000      2.18810000   -0.0672   58.2714
     C      2.12680000     -2.09980000      2.16000000   -0.0613   59.5482
     C      6.02880000     -1.42020000     -0.11300000   -0.0388   47.5936
     C      6.25690000     -2.82580000     -0.09490000   -0.0441   48.4945
     C      6.04520000     -0.70090000      1.09900000    0.0107   73.7471
     C      6.47650000     -3.53090000      1.09720000    0.0140   76.3489
     H      3.50920000     -0.57500000      1.56880000    0.0340   24.9507
     H      2.57640000     -2.86320000      1.52270000    0.0286   25.3179
     H      2.20230000     -0.02440000      2.82510000    0.0220   25.2180
     H      1.25750000     -2.35840000      2.78240000    0.0241   25.3107
     H      5.87840000      0.37770000      1.10230000    0.0296   26.0774
     H      6.64460000     -4.61050000      1.09690000    0.0250   26.0220
     H      5.88110000     -1.12740000     -1.16300000   -0.0195   24.3793
     H      6.21640000     -3.17810000     -1.13620000   -0.0235   24.6265
     H      6.21940000     -1.25390000      2.03380000    0.0368   23.5014
     H      6.47380000     -2.95250000      2.03290000    0.0296   23.7683
