12
chgs=0 nmr=1 alpha=44.69 b3lypd3vdz=-248.35362363636 
     C      6.04520000     -0.70090000      1.09900000   -0.0623   54.7601
     C      6.26560000     -1.40060000      2.28170000   -0.0723   63.0358
     C      4.42820000      3.44170000      0.90960000    0.1786   36.5322
     O      4.96590000      2.35460000      0.66000000   -0.2663  -98.6263
     N      3.18890000      3.51260000      1.46050000   -0.0708  162.2054
     H      5.87840000      0.37770000      1.10230000    0.0468   23.9439
     H      6.27140000     -0.86200000      3.23210000    0.0148   25.5419
     H      6.03240000     -1.26230000      0.15310000    0.0129   25.0987
     H      6.42710000     -2.48870000      2.28190000    0.0160   25.3916
     H      2.70330000      4.40390000      1.49810000    0.0973   27.3643
     H      4.93670000      4.38870000      0.67620000    0.0028   23.1966
     H      2.62700000      2.69190000      1.56460000    0.1024   27.3906
