16
chgs=0 nmr=1 alpha=68.9 b3lypd3vdz=-288.638877829804 
     C      5.96040000     -2.19040000     -2.23880000    0.0359   81.2135
     C      6.02880000     -1.42020000     -0.11300000   -0.0667   75.0755
     N      6.20610000     -3.26820000     -1.40250000   -0.0518  114.4354
     C      6.25690000     -2.82580000     -0.09490000    0.0435   68.6247
     C      3.96600000      0.65520000     -1.66450000   -0.0069  168.9634
     C      5.43980000      0.31980000     -1.99600000    0.0399  166.9465
     C      5.83470000     -1.03550000     -1.49250000   -0.0460   65.3689
     H      5.91250000     -2.32370000     -3.31810000   -0.0243   25.1264
     H      6.40150000     -4.21130000     -1.70730000    0.0855   24.4425
     H      3.89510000      0.83610000     -0.58100000    0.0166   30.1263
     H      5.58910000      0.39330000     -3.08410000   -0.0066   29.1824
     H      6.04570000      1.11050000     -1.53420000    0.0052   28.9574
     H      6.04160000     -0.85880000      0.83290000   -0.0499   24.7383
     H      6.42920000     -3.37890000      0.84020000   -0.0024   24.1097
     H      3.33350000     -0.20980000     -1.91290000    0.0206   30.4732
     H      3.68100000      1.60630000     -2.13800000    0.0074   30.0712
