19
chgs=0 nmr=1 alpha=59.28 b3lypd3vdz=-381.26578443382 
     C     -2.83870000     -1.09330000     -3.13790000    0.1014  142.5770
     O     -1.71160000     -0.46870000     -2.50910000   -0.2825  328.9253
     N      0.29000000     -2.47520000     -0.72790000   -0.2594  265.0894
     C      1.51630000     -2.25140000     -1.46470000    0.0492  162.4170
     N     -2.50100000      0.37410000      2.72560000   -0.0635  169.2011
     C     -1.91270000      0.47570000      1.51600000    0.1794   39.1996
     O     -1.83470000     -0.51030000      0.76680000   -0.2726 -108.0636
     H     -2.49380000     -1.73900000     -3.96220000    0.0064   27.8887
     H     -0.90150000     -0.86780000     -2.89010000    0.1506   31.3877
     H     -3.34220000     -1.75290000     -2.41580000    0.0245   27.7030
     H     -3.51190000     -0.31800000     -3.53260000    0.0226   27.9037
     H     -0.46940000     -1.80640000     -0.84560000    0.0852   30.3500
     H      2.30700000     -2.84320000     -0.97730000    0.0092   28.9067
     H      0.13210000     -3.33170000     -0.23650000    0.0653   32.1044
     H      1.82450000     -1.19670000     -1.41380000    0.0165   28.8266
     H      1.41200000     -2.60180000     -2.50220000   -0.0114   28.3811
     H     -2.88390000     -0.51070000      2.99120000    0.0925   27.8542
     H     -2.69620000      1.10040000      3.38470000    0.0852   27.5276
     H     -1.50900000      1.44310000      1.18240000    0.0014   23.1106
