15
chgs=0 nmr=1 alpha=57.36 b3lypd3vdz=-287.588387000684 
     C      4.42820000      3.44170000      0.90960000    0.1788   -4.8820
     O      4.96590000      2.35460000      0.66000000   -0.1986 -479.9101
     C      5.96040000     -2.19040000     -2.23880000   -0.0087   58.0827
     N      6.20610000     -3.26820000     -1.40250000   -0.0761  203.7810
     C      5.43980000      0.31980000     -1.99600000    0.0521  177.5530
     C      5.83470000     -1.03550000     -1.49250000   -0.1066   89.9730
     H      4.93670000      4.38870000      0.67620000    0.0169   21.3459
     H      3.42440000      3.49910000      1.35580000    0.0175   21.3067
     H      5.91250000     -2.32370000     -3.31810000   -0.0145   25.2000
     H      6.40150000     -4.21130000     -1.70730000    0.0779   29.4955
     H      5.58910000      0.39330000     -3.08410000    0.0008   30.0131
     H      6.04570000      1.11050000     -1.53420000    0.0221   29.6167
     H      6.24290000     -2.94790000     -0.45590000    0.0704   27.9613
     H      4.39210000      0.55820000     -1.76030000    0.0190   29.8679
     H      5.98240000     -1.32830000     -0.44250000   -0.0511   26.3558
