10
b3lypd3vdz=-284.269734709666 
     C     -1.91270000      0.47570000      1.51600000
     O     -1.83470000     -0.51030000      0.76680000
     N     -4.14050000     -1.27530000     -1.02540000
     C     -5.44150000     -1.47950000     -0.66470000
     O     -6.22450000     -2.15670000     -1.31890000
     H     -1.50900000      1.44310000      1.18240000
     H     -2.39240000      0.39280000      2.50240000
     H     -3.49920000     -0.77170000     -0.41380000
     H     -3.73200000     -1.78860000     -1.78020000
     H     -5.81100000     -0.96070000      0.23210000
