11
chgs=0 nmr=1 alpha=35.97 b3lypd3vdz=-119.057961439095 
     C     -3.54700000     -2.02120000     -2.12210000   -0.0247  171.9580
     C     -2.83870000     -1.09330000     -3.13790000   -0.0613  168.8782
     C     -3.77040000     -0.02030000     -3.68410000   -0.0174  173.4410
     H     -4.37040000     -2.54620000     -2.62940000    0.0139   30.5908
     H     -2.49380000     -1.73900000     -3.96220000    0.0082   29.9615
     H     -3.25600000      0.55400000     -4.46900000    0.0117   30.1808
     H     -4.68470000     -0.46680000     -4.10730000    0.0151   30.5571
     H     -4.05240000      0.68150000     -2.88650000    0.0162   30.5052
     H     -3.99630000     -1.45650000     -1.29190000    0.0162   30.5275
     H     -2.83000000     -2.78180000     -1.77940000    0.0138   30.1290
     H     -1.97400000     -0.61410000     -2.65550000    0.0084   30.0059
