13
chgs=0 nmr=1 alpha=49.18 b3lypd3vdz=-232.272572204238 
     C      4.42820000      3.44170000      0.90960000    0.1795   -5.4943
     O      4.96590000      2.35460000      0.66000000   -0.2028 -475.4293
     C      5.96040000     -2.19040000     -2.23880000   -0.0253   66.5372
     C      5.43980000      0.31980000     -1.99600000    0.0409  172.8655
     C      5.83470000     -1.03550000     -1.49250000   -0.1161   45.5650
     H      4.93670000      4.38870000      0.67620000    0.0188   21.3404
     H      3.42440000      3.49910000      1.35580000    0.0197   21.3085
     H      5.91250000     -2.32370000     -3.31810000    0.0010   25.6879
     H      5.58910000      0.39330000     -3.08410000    0.0145   29.6737
     H      6.04570000      1.11050000     -1.53420000    0.0343   29.3882
     H      6.15540000     -3.04570000     -1.57510000    0.0082   26.0026
     H      4.39210000      0.55820000     -1.76030000    0.0371   29.7486
     H      5.98240000     -1.32830000     -0.44250000   -0.0099   24.6089
