11
chgs=0 nmr=1 alpha=38.61 b3lypd3vdz=-268.277031761544 
     C     -1.35040000      1.82310000      1.05140000   -0.0002  179.3355
     C     -1.88600000      2.12790000     -0.35750000   -0.0500  165.3945
     C     -3.36750000      2.38270000     -0.31390000    0.1541   21.5313
     O     -4.04740000      2.27800000      0.70320000   -0.2589  -90.0502
     O     -3.88670000      2.72240000     -1.49350000   -0.1653  143.6666
     H     -1.61820000      2.64140000      1.72800000    0.0338   30.1893
     H     -1.37820000      3.00360000     -0.78400000    0.0411   29.3633
     H     -1.69840000      1.28000000     -1.04010000    0.0449   29.2808
     H     -4.86380000      2.83350000     -1.40270000    0.1605   25.7157
     H     -0.25490000      1.72910000      1.08280000    0.0072   30.6305
     H     -1.75410000      0.85570000      1.38500000    0.0327   30.1535
