14
chgs=0 nmr=1 alpha=65.84 b3lypd3vdz=-270.368780562765 
     C      2.64600000      1.59200000      2.95990000    0.0426  171.5610
     C      2.08100000      0.19180000      3.00120000   -0.1202   72.1155
     C      0.98480000     -0.15760000      3.80220000    0.0399   59.0260
     C      0.45840000     -1.45210000      3.78880000   -0.0061   81.9238
     C      1.01760000     -2.42980000      2.95410000    0.0779   42.3592
     O      0.45780000     -3.67340000      2.95140000   -0.1753  213.8041
     H      3.74190000      1.55800000      3.06080000    0.0187   29.7593
     H      2.25480000      2.20950000      3.78430000    0.0164   29.7341
     H      0.53070000      0.59650000      4.45220000   -0.0353   25.4167
     H     -0.38490000     -1.72720000      4.42550000   -0.0265   25.9784
     H      0.82970000     -4.18290000      2.20160000    0.1592   28.4203
     H      2.45380000      2.10780000      2.00750000    0.0274   29.6726
     H      2.51990000     -0.59030000      2.36420000   -0.0279   24.3107
     H      1.88690000     -2.17120000      2.33170000    0.0091   22.4036
