11
chgs=0 nmr=1 alpha=35.63 b3lypd3vdz=-119.04596093458 
     C     -3.54840000     -0.67920000      4.55730000   -0.0223  162.9230
     C     -3.88230000      0.82070000      4.57630000   -0.0571  172.9660
     C     -2.78870000      1.44460000      3.69700000   -0.0210  164.2642
     H     -4.39500000     -1.32650000      4.82530000    0.0088   29.8788
     H     -2.72210000     -0.89730000      5.25360000    0.0188   29.7807
     H     -4.86980000      0.99170000      4.11760000    0.0087   30.1790
     H     -3.89940000      1.24920000      5.58850000    0.0074   30.2050
     H     -1.88090000      1.68360000      4.27730000    0.0209   29.7153
     H     -3.13200000      2.35020000      3.17990000    0.0093   29.8089
     H     -3.20230000     -0.85540000      3.52810000    0.0163   30.3766
     H     -2.57400000      0.64570000      2.97200000    0.0103   30.3454
