11
chgs=0 nmr=1 alpha=38.97 b3lypd3vdz=-268.201845285964 
     C     -1.91270000      0.47570000      1.51600000    0.1782   -6.1055
     O     -1.83470000     -0.51030000      0.76680000   -0.2111 -497.0060
     C      1.51630000     -2.25140000     -1.46470000   -0.0443  159.2931
     C      1.94450000     -0.78610000     -1.39400000    0.1233   -8.6457
     O      1.25770000      0.07870000     -0.82990000   -0.2122 -393.8380
     H     -1.50900000      1.44310000      1.18240000    0.0222   21.0515
     H     -2.39240000      0.39280000      2.50240000    0.0121   21.0952
     H      2.30700000     -2.84320000     -0.97730000    0.0394   29.6143
     H      0.58470000     -2.42140000     -0.90500000    0.0552   29.1119
     H      1.41200000     -2.60180000     -2.50220000    0.0458   29.2854
     H      2.90130000     -0.55550000     -1.88520000   -0.0085   21.2693
