5
chgs=0 nmr=1 alpha=16.67 b3lypd3vdz=-189.684678652599 
     C     -3.36750000      2.38270000     -0.31390000    0.2259   35.5245
     O     -4.04740000      2.27800000      0.70320000   -0.2614 -117.0015
     O     -3.88670000      2.72240000     -1.49350000   -0.1614  129.8485
     H     -4.86380000      2.83350000     -1.40270000    0.1669   25.4004
     H     -2.28390000      2.19630000     -0.34580000    0.0299   23.6375
