17
chgs=0 nmr=1 alpha=73.64 b3lypd3vdz=-309.604575524476 
     C      6.02880000     -1.42020000     -0.11300000   -0.0807   57.3661
     C      6.04520000     -0.70090000      1.09900000   -0.0405   60.1556
     C      2.64120000     -0.80650000      2.18810000    0.0160   66.5872
     C      2.12680000     -2.09980000      2.16000000   -0.0330   58.7765
     C      0.45840000     -1.45210000      3.78880000   -0.0198   99.1453
     C      1.01760000     -2.42980000      2.95410000    0.0070   32.7079
     O      0.45780000     -3.67340000      2.95140000   -0.1823  215.8355
     H      5.87840000      0.37770000      1.10230000    0.0408   25.1540
     H      5.88110000     -1.12740000     -1.16300000    0.0324   24.8985
     H      6.20500000     -2.50590000     -0.09900000    0.0260   25.4896
     H      6.21940000     -1.25390000      2.03380000    0.0423   24.8315
     H      3.50920000     -0.57500000      1.56880000    0.0243   25.9344
     H      2.57640000     -2.86320000      1.52270000   -0.0265   25.7772
     H     -0.38490000     -1.72720000      4.42550000    0.0033   27.0492
     H      0.82970000     -4.18290000      2.20160000    0.1452   28.9809
     H      2.20230000     -0.02440000      2.82510000    0.0261   24.0892
     H      0.87270000     -0.43320000      3.79930000    0.0194   25.1338
