17
chgs=0 nmr=1 alpha=66.01 b3lypd3vdz=-251.662127867599 
     N     -2.50100000      0.37410000      2.72560000   -0.2334  266.5194
     C     -3.06370000     -0.92600000      3.11590000    0.0411  159.8302
     C      2.64120000     -0.80650000      2.18810000    0.0027   73.9519
     C      2.12680000     -2.09980000      2.16000000   -0.0172   55.7928
     C      0.45840000     -1.45210000      3.78880000    0.0207   65.2151
     C      1.01760000     -2.42980000      2.95410000   -0.0440   55.0195
     H     -2.29450000     -1.70630000      3.05990000    0.0116   28.4871
     H     -2.06490000      0.44940000      1.82890000    0.0804   31.8402
     H     -2.69620000      1.10040000      3.38470000    0.0772   31.1475
     H     -3.86060000     -1.26200000      2.43610000    0.0040   28.6958
     H     -3.40980000     -0.74980000      4.14510000    0.0173   29.0533
     H      3.50920000     -0.57500000      1.56880000    0.0137   26.2630
     H      2.57640000     -2.86320000      1.52270000   -0.0207   25.0479
     H     -0.38490000     -1.72720000      4.42550000    0.0213   25.7817
     H      2.20230000     -0.02440000      2.82510000    0.0227   23.7243
     H      0.87270000     -0.43320000      3.79930000    0.0209   23.1917
     H      0.56610000     -3.43290000      2.95190000   -0.0183   24.8512
