6
chgs=0 nmr=1 alpha=20.6 b3lypd3vdz=-169.816129803655 
     C     -4.17810000     -1.39590000      2.16520000    0.1670   39.0742
     O     -4.36040000     -2.59610000      1.96420000   -0.2741 -108.0706
     N     -4.93360000     -0.42760000      1.58080000   -0.0785  164.9768
     H     -4.60560000      0.53540000      1.61300000    0.0963   27.5696
     H     -3.38120000     -1.05990000      2.84500000   -0.0085   23.3203
     H     -5.63580000     -0.64980000      0.90440000    0.0979   27.5972
