13
chgs=0 nmr=1 alpha=42.61 b3lypd3vdz=-265.601273623892 
     N      0.09590000      1.69900000      1.09290000   -0.2562  262.4764
     C     -1.35040000      1.82310000      1.05140000    0.0664  161.6599
     N      3.11920000     -0.50300000     -1.99710000   -0.0624  164.0400
     C      1.94450000     -0.78610000     -1.39400000    0.1814   35.9101
     O      1.25770000      0.07870000     -0.82990000   -0.2652 -101.2367
     H      0.50170000      0.84260000      0.71010000    0.0782   28.9742
     H     -1.61820000      2.64140000      1.72800000    0.0046   28.9510
     H      0.69480000      2.44590000      1.38170000    0.0541   32.2230
     H     -1.75410000      0.85570000      1.38500000    0.0069   28.4382
     H     -1.73350000      2.04110000      0.04360000   -0.0060   28.4161
     H      3.66780000     -1.30950000     -2.29190000    0.0952   27.8308
     H      3.69420000      0.28340000     -1.77130000    0.1019   27.5799
     H      1.63630000     -1.84080000     -1.44490000    0.0013   23.3337
