14
chgs=0 nmr=1 alpha=47.33 b3lypd3vdz=-249.52800183315 
     C      4.42820000      3.44170000      0.90960000    0.1815   -4.7664
     O      4.96590000      2.35460000      0.66000000   -0.1905 -466.0279
     N      3.11920000     -0.50300000     -1.99710000   -0.2176  242.0402
     C      3.96600000      0.65520000     -1.66450000    0.0405  151.4718
     C      5.43980000      0.31980000     -1.99600000   -0.0444  172.1406
     H      4.93670000      4.38870000      0.67620000    0.0232   21.3854
     H      3.42440000      3.49910000      1.35580000    0.0214   21.3537
     H      3.66780000     -1.30950000     -2.29190000    0.0659   32.0966
     H      3.89510000      0.83610000     -0.58100000    0.0134   28.0772
     H      5.58910000      0.39330000     -3.08410000    0.0187   30.1665
     H      6.04570000      1.11050000     -1.53420000    0.0195   29.8887
     H      2.24940000     -0.71260000     -1.55050000    0.0646   31.6649
     H      3.68100000      1.60630000     -2.13800000   -0.0114   29.3529
     H      5.72960000     -0.67490000     -1.62650000    0.0154   30.6722
