17
chgs=0 nmr=1 alpha=58.21 b3lypd3vdz=-288.866410127931 
     C      2.64600000      1.59200000      2.95990000   -0.0672  181.3432
     C      2.37390000      2.32220000      1.61150000   -0.0815  179.3387
     N      3.11920000     -0.50300000     -1.99710000   -0.1357  153.4562
     C      3.96600000      0.65520000     -1.66450000    0.0454  162.1591
     C      1.94450000     -0.78610000     -1.39400000    0.1873   34.2657
     O      1.25770000      0.07870000     -0.82990000   -0.2789 -109.6329
     H      3.74190000      1.55800000      3.06080000    0.0108   30.4669
     H      2.25480000      2.20950000      3.78430000    0.0179   30.3628
     H      2.62670000      1.62560000      0.80080000    0.0415   29.4803
     H      2.23450000      0.57230000      2.99000000    0.0263   30.4150
     H      2.99190000      3.22490000      1.49700000    0.0063   30.6444
     H      1.31330000      2.59870000      1.51820000    0.0253   30.2521
     H      3.66780000     -1.30950000     -2.29190000    0.0852   27.7512
     H      3.89510000      0.83610000     -0.58100000    0.0521   27.9495
     H      3.68100000      1.60630000     -2.13800000    0.0496   28.5136
     H      5.01370000      0.41680000     -1.90020000    0.0269   29.1385
     H      1.63630000     -1.84080000     -1.44490000   -0.0112   23.2919
