15
chgs=0 nmr=1 alpha=55.6 b3lypd3vdz=-287.652929821712 
     C      6.04520000     -0.70090000      1.09900000   -0.0618   54.5221
     C      6.26560000     -1.40060000      2.28170000   -0.0732   63.2428
     C      5.13490000      4.75780000      0.58520000    0.0032  170.1668
     C      4.42820000      3.44170000      0.90960000    0.0528   27.3956
     O      4.96590000      2.35460000      0.66000000   -0.2702  -70.1801
     N      3.18890000      3.51260000      1.46050000   -0.0592  162.9385
     H      5.87840000      0.37770000      1.10230000    0.0494   23.8920
     H      6.27140000     -0.86200000      3.23210000    0.0142   25.5533
     H      6.03240000     -1.26230000      0.15310000    0.0119   25.0980
     H      6.42710000     -2.48870000      2.28190000    0.0152   25.4093
     H      5.99190000      4.83530000      1.27870000    0.0622   29.3221
     H      4.47090000      5.61460000      0.77610000    0.0054   30.1603
     H      2.70330000      4.40390000      1.49810000    0.0918   27.1303
     H      5.50070000      4.80480000     -0.45110000    0.0595   29.4350
     H      2.62700000      2.69190000      1.56460000    0.0988   27.7376
