17
chgs=0 nmr=1 alpha=65.97 b3lypd3vdz=-251.661080337336 
     N     -2.50100000      0.37410000      2.72560000   -0.2273  264.8488
     C     -3.06370000     -0.92600000      3.11590000    0.0409  160.4342
     C      0.98480000     -0.15760000      3.80220000    0.0064   70.8906
     C      2.12680000     -2.09980000      2.16000000    0.0037   72.2911
     C      0.45840000     -1.45210000      3.78880000   -0.0158   54.5048
     C      1.01760000     -2.42980000      2.95410000   -0.0341   52.7433
     H     -2.29450000     -1.70630000      3.05990000    0.0106   28.8675
     H     -2.06490000      0.44940000      1.82890000    0.0808   31.8483
     H     -2.69620000      1.10040000      3.38470000    0.0772   31.1762
     H     -3.86060000     -1.26200000      2.43610000    0.0058   28.6722
     H     -3.40980000     -0.74980000      4.14510000    0.0186   29.1177
     H      0.53070000      0.59650000      4.45220000    0.0112   26.1418
     H      2.57640000     -2.86320000      1.52270000    0.0145   26.1448
     H     -0.38490000     -1.72720000      4.42550000   -0.0164   24.7582
     H      1.84490000      0.11660000      3.17370000    0.0201   23.6908
     H      2.53330000     -1.07790000      2.18220000    0.0231   23.5676
     H      0.56610000     -3.43290000      2.95190000   -0.0192   24.7617
