15
chgs=0 nmr=1 alpha=45.4 b3lypd3vdz=-175.553381410551 
     C      2.64600000      1.59200000      2.95990000   -0.0646  181.3581
     C      2.37390000      2.32220000      1.61150000   -0.0778  180.2956
     N      3.11920000     -0.50300000     -1.99710000   -0.2396  263.5693
     C      3.96600000      0.65520000     -1.66450000    0.0395  161.5208
     H      3.74190000      1.55800000      3.06080000    0.0212   30.2534
     H      2.25480000      2.20950000      3.78430000    0.0223   30.2952
     H      2.62670000      1.62560000      0.80080000    0.0332   29.9514
     H      2.23450000      0.57230000      2.99000000    0.0238   30.3866
     H      2.99190000      3.22490000      1.49700000    0.0211   30.4806
     H      1.31330000      2.59870000      1.51820000    0.0196   30.3650
     H      3.66780000     -1.30950000     -2.29190000    0.0755   31.5620
     H      3.89510000      0.83610000     -0.58100000    0.0171   28.1592
     H      2.24940000     -0.71260000     -1.55050000    0.0733   32.0603
     H      3.68100000      1.60630000     -2.13800000    0.0158   28.9237
     H      5.01370000      0.41680000     -1.90020000    0.0197   29.0806
