10
chgs=0 nmr=1 alpha=30.76 b3lypd3vdz=-135.067613908536 
     N     -2.50100000      0.37410000      2.72560000   -0.2133  237.7897
     C     -3.06370000     -0.92600000      3.11590000    0.0568  154.6929
     C     -3.54840000     -0.67920000      4.55730000   -0.0361  167.8775
     H     -2.29450000     -1.70630000      3.05990000   -0.0007   28.6819
     H     -4.39500000     -1.32650000      4.82530000    0.0157   29.9681
     H     -2.72210000     -0.89730000      5.25360000    0.0287   29.5185
     H     -2.06490000      0.44940000      1.82890000    0.0704   31.4161
     H     -2.69620000      1.10040000      3.38470000    0.0696   32.1586
     H     -3.86060000     -1.26200000      2.43610000   -0.0054   28.6789
     H     -3.78740000      0.39440000      4.57090000    0.0144   31.1544
