21
chgs=0 nmr=1 alpha=74.4 b3lypd3vdz=-312.020672092216 
     C      2.64120000     -0.80650000      2.18810000   -0.0573   54.3924
     C      2.12680000     -2.09980000      2.16000000   -0.0611   61.1109
     C      6.04520000     -0.70090000      1.09900000   -0.0616   59.3985
     C      6.26560000     -1.40060000      2.28170000   -0.0460   56.4341
     O      0.17140000     -2.23790000     -3.52280000   -0.2864  282.8450
     C      1.51630000     -2.25140000     -1.46470000   -0.0410  165.9255
     C      1.36760000     -2.75080000     -2.94330000    0.1054  129.9154
     H      3.50920000     -0.57500000      1.56880000    0.0331   25.0357
     H      2.57640000     -2.86320000      1.52270000    0.0265   25.4493
     H      2.20230000     -0.02440000      2.82510000    0.0226   25.0555
     H      1.25750000     -2.35840000      2.78240000    0.0238   25.3841
     H      5.87840000      0.37770000      1.10230000    0.0340   25.1742
     H      6.27140000     -0.86200000      3.23210000    0.0296   25.2700
     H      6.03240000     -1.26230000      0.15310000    0.0305   25.1473
     H      6.42710000     -2.48870000      2.28190000    0.0310   25.0002
     H     -0.55590000     -2.85860000     -3.27480000    0.1431   31.3388
     H      2.30700000     -2.84320000     -0.97730000    0.0056   30.4982
     H      2.19480000     -2.32230000     -3.53340000    0.0204   27.6291
     H      0.58470000     -2.42140000     -0.90500000    0.0137   30.5887
     H      1.82450000     -1.19670000     -1.41380000    0.0320   29.8458
     H      1.40180000     -3.84800000     -3.01410000    0.0022   27.7485
