18
chgs=0 nmr=1 alpha=65.72 b3lypd3vdz=-326.975103120642 
     C     -5.95950000     -0.75220000      0.59260000    0.0581  152.9919
     C     -5.44150000     -1.47950000     -0.66470000    0.0898   29.1341
     O     -6.22450000     -2.15670000     -1.31890000   -0.2801  -56.7755
     C     -6.72760000      0.54920000      0.23110000   -0.0567  171.3478
     C     -7.17340000      0.66390000     -1.24020000   -0.0006  177.2658
     N     -4.14050000     -1.27530000     -1.02540000   -0.1545  153.3366
     C     -3.54700000     -2.02120000     -2.12210000    0.0483  167.8710
     H     -6.64650000     -1.48990000      1.03030000    0.0316   29.2418
     H     -7.60780000      0.64120000      0.88650000    0.0132   29.8459
     H     -6.07680000      1.40620000      0.44970000    0.0067   30.1212
     H     -6.30940000      0.50900000     -1.90500000    0.0226   30.6413
     H     -7.93760000     -0.07880000     -1.49670000    0.0338   30.0800
     H     -3.49920000     -0.77170000     -0.41380000    0.0832   27.0891
     H     -4.37040000     -2.54620000     -2.62940000    0.0544   27.0527
     H     -5.18710000     -0.50780000      1.33670000   -0.0076   29.5530
     H     -7.57180000      1.66990000     -1.43800000    0.0051   30.6074
     H     -2.83000000     -2.78180000     -1.77940000    0.0269   29.3381
     H     -3.04350000     -1.36160000     -2.84420000    0.0258   29.2893
