14
chgs=0 nmr=1 alpha=54.94 b3lypd3vdz=-361.67056357103 
     C     -3.54700000     -2.02120000     -2.12210000    0.0054  168.2509
     C     -2.54580000     -3.08320000     -1.64360000    0.0735   27.7650
     O     -1.85310000     -3.71080000     -2.46200000   -0.2920  -73.9556
     N     -2.40610000     -3.22870000     -0.31420000   -0.1294  154.1210
     C     -1.36200000     -4.02470000      0.28750000    0.0729  140.2471
     C      0.07660000     -3.63300000     -0.06370000    0.1627  -13.8563
     O      0.98870000     -4.40750000      0.25670000   -0.2168 -370.6988
     H     -4.37040000     -2.54620000     -2.62940000    0.0557   29.4484
     H     -3.05840000     -2.77050000      0.31520000    0.0891   26.6786
     H     -1.46800000     -3.96920000      1.37910000    0.0420   28.5682
     H     -1.43760000     -5.08370000     -0.00650000    0.0636   27.2729
     H     -3.99630000     -1.45650000     -1.29190000    0.0067   30.1603
     H     -3.04350000     -1.36160000     -2.84420000    0.0617   29.2711
     H      0.25030000     -2.69080000     -0.60420000    0.0049   21.3131
