17
chgs=0 nmr=1 alpha=61.32 b3lypd3vdz=-342.99521476751 
     N      0.29000000     -2.47520000     -0.72790000   -0.2046  259.4941
     C      1.51630000     -2.25140000     -1.46470000    0.0776  148.0067
     C      1.94450000     -0.78610000     -1.39400000    0.1043   23.9821
     O      1.25770000      0.07870000     -0.82990000   -0.2832  -82.5213
     N      3.11920000     -0.50300000     -1.99710000   -0.1339  143.0435
     C      3.96600000      0.65520000     -1.66450000    0.0710  152.6310
     C      5.43980000      0.31980000     -1.99600000   -0.0588  173.8780
     H     -0.46940000     -1.80640000     -0.84560000    0.0878   30.9414
     H      2.30700000     -2.84320000     -0.97730000    0.0227   28.5218
     H      3.66780000     -1.30950000     -2.29190000    0.0800   28.4083
     H      3.89510000      0.83610000     -0.58100000    0.0260   28.2159
     H      5.58910000      0.39330000     -3.08410000    0.0324   29.9814
     H      6.04570000      1.11050000     -1.53420000    0.0309   30.0830
     H      0.13210000     -3.33170000     -0.23650000    0.0709   31.6662
     H      1.41200000     -2.60180000     -2.50220000    0.0199   27.6645
     H      3.68100000      1.60630000     -2.13800000    0.0315   28.3748
     H      5.72960000     -0.67490000     -1.62650000    0.0256   30.6884
