16
chgs=0 nmr=1 alpha=72.11 b3lypd3vdz=-234.458199296515 
     C      2.37390000      2.32220000      1.61150000   -0.0138  168.3990
     C      2.64600000      1.59200000      2.95990000    0.0214  163.4640
     C      2.08100000      0.19180000      3.00120000   -0.0549   49.3577
     C      2.64120000     -0.80650000      2.18810000    0.0369   56.6012
     C      2.12680000     -2.09980000      2.16000000   -0.0191   55.2760
     C      1.01760000     -2.42980000      2.95410000   -0.0093   73.2440
     H      2.62670000      1.62560000      0.80080000    0.0179   30.6426
     H      3.74190000      1.55800000      3.06080000    0.0201   29.0863
     H      2.25480000      2.20950000      3.78430000    0.0012   29.5319
     H      3.50920000     -0.57500000      1.56880000   -0.0320   25.1331
     H      2.57640000     -2.86320000      1.52270000   -0.0239   25.0287
     H      2.99190000      3.22490000      1.49700000    0.0136   30.0902
     H      1.31330000      2.59870000      1.51820000    0.0203   30.1137
     H      1.22090000     -0.08240000      3.62970000   -0.0123   22.7812
     H      0.57880000     -1.66260000      3.60900000    0.0202   24.0689
     H      0.56610000     -3.43290000      2.95190000    0.0138   26.1471
