16
chgs=0 nmr=1 alpha=53.56 b3lypd3vdz=-304.863288538634 
     N      5.62010000      4.82020000     -0.78950000   -0.2078  243.8418
     C      5.13490000      4.75780000      0.58520000    0.0237  160.1486
     N      2.23970000      2.31020000     -2.25620000   -0.2170  256.3979
     C      1.75110000      3.61130000     -2.68940000    0.0858  140.9982
     C      1.57950000      4.49420000     -1.45790000    0.1540   -1.3613
     O      2.47210000      5.11220000     -0.91980000   -0.1875 -284.9219
     H      6.12690000      3.95360000     -0.98840000    0.0563   32.1329
     H      4.80970000      4.78470000     -1.41320000    0.0581   30.5468
     H      5.99190000      4.83530000      1.27870000    0.0087   29.1165
     H      4.47090000      5.61460000      0.77610000    0.0344   28.5074
     H      4.62640000      3.81080000      0.81860000   -0.0137   29.0610
     H      1.62560000      1.68770000     -1.72520000    0.0903   30.9056
     H      2.50890000      4.05600000     -3.34560000    0.0341   28.6861
     H      0.79420000      3.49920000     -3.21900000    0.0155   28.0736
     H      3.21050000      2.07650000     -2.30990000    0.0886   31.0021
     H      0.55720000      4.43690000     -1.05590000   -0.0234   21.5902
