16
chgs=0 nmr=1 alpha=51.12 b3lypd3vdz=-399.924463984489 
     N      3.18890000      3.51260000      1.46050000   -0.2324  259.1340
     C      2.37390000      2.32220000      1.61150000    0.0465  161.5994
     C      1.94450000     -0.78610000     -1.39400000    0.1799   -5.8555
     O      1.25770000      0.07870000     -0.82990000   -0.2006 -468.1321
     C      1.57950000      4.49420000     -1.45790000    0.2348   37.5287
     O      0.32590000      4.42390000     -0.96490000   -0.1774  132.2205
     O      2.47210000      5.11220000     -0.91980000   -0.2399 -110.9161
     H      2.70330000      4.40390000      1.49810000    0.0703   31.5581
     H      2.62670000      1.62560000      0.80080000    0.0108   28.6963
     H      4.10140000      3.46040000      1.05490000    0.0718   32.1572
     H      1.31330000      2.59870000      1.51820000    0.0039   29.0900
     H      2.56610000      1.80640000      2.56390000    0.0033   28.7038
     H      1.63630000     -1.84080000     -1.44490000    0.0206   21.3241
     H      2.90130000     -0.55550000     -1.88520000    0.0176   21.3170
     H      0.33700000      4.72390000     -0.02600000    0.1648   25.7210
     H      1.70330000      3.85730000     -2.34620000    0.0260   23.6249
