7
chgs=0 nmr=1 alpha=24.84 b3lypd3vdz=-153.753128506513 
     C     -7.17340000      0.66390000     -1.24020000   -0.0405  161.2270
     C     -7.71910000      2.04180000     -1.51110000    0.1131    3.6461
     O     -8.86560000      2.36260000     -1.68260000   -0.1826 -325.7925
     H     -6.30940000      0.50900000     -1.90500000    0.0409   29.4654
     H     -7.93760000     -0.07880000     -1.49670000    0.0394   29.7732
     H     -6.85530000      0.58210000     -0.19040000    0.0568   29.3922
     H     -6.91510000      2.79240000     -1.52410000   -0.0272   21.7147
