14
chgs=0 nmr=1 alpha=48.63 b3lypd3vdz=-398.717079812743 
     C     -1.91270000      0.47570000      1.51600000    0.1793   -7.7928
     O     -1.83470000     -0.51030000      0.76680000   -0.2116 -482.9104
     C      1.94450000     -0.78610000     -1.39400000    0.1781   -5.7441
     O      1.25770000      0.07870000     -0.82990000   -0.2140 -472.9855
     C     -2.54580000     -3.08320000     -1.64360000    0.1684   37.8053
     O     -1.85310000     -3.71080000     -2.46200000   -0.3039  -94.8714
     N     -2.40610000     -3.22870000     -0.31420000   -0.0474  158.5644
     H     -1.50900000      1.44310000      1.18240000    0.0300   21.0888
     H     -2.39240000      0.39280000      2.50240000    0.0157   21.1512
     H      1.63630000     -1.84080000     -1.44490000    0.0253   21.3970
     H      2.90130000     -0.55550000     -1.88520000    0.0112   21.3157
     H     -3.05840000     -2.77050000      0.31520000    0.0897   26.9914
     H     -3.26280000     -2.32260000     -1.98630000   -0.0112   23.2404
     H     -1.68320000     -3.77990000      0.10240000    0.0904   27.1633
