21
chgs=0 nmr=1 alpha=75.12 b3lypd3vdz=-312.015451999378 
     C      2.64120000     -0.80650000      2.18810000   -0.0666   57.8079
     C      2.12680000     -2.09980000      2.16000000   -0.0593   59.9396
     C      6.02880000     -1.42020000     -0.11300000   -0.0803   57.2941
     C      6.04520000     -0.70090000      1.09900000   -0.0408   60.0745
     O      0.17140000     -2.23790000     -3.52280000   -0.2865  282.8307
     C      1.51630000     -2.25140000     -1.46470000   -0.0417  165.9151
     C      1.36760000     -2.75080000     -2.94330000    0.1051  129.9360
     H      3.50920000     -0.57500000      1.56880000    0.0357   25.0511
     H      2.57640000     -2.86320000      1.52270000    0.0285   25.3996
     H      2.20230000     -0.02440000      2.82510000    0.0233   25.2112
     H      1.25750000     -2.35840000      2.78240000    0.0244   25.3161
     H      5.87840000      0.37770000      1.10230000    0.0400   25.1310
     H      5.88110000     -1.12740000     -1.16300000    0.0325   24.8683
     H      6.20500000     -2.50590000     -0.09900000    0.0263   25.4506
     H      6.21940000     -1.25390000      2.03380000    0.0418   24.8234
     H     -0.55590000     -2.85860000     -3.27480000    0.1430   31.3508
     H      2.30700000     -2.84320000     -0.97730000    0.0069   30.5476
     H      2.19480000     -2.32230000     -3.53340000    0.0197   27.6491
     H      0.58470000     -2.42140000     -0.90500000    0.0130   30.6149
     H      1.82450000     -1.19670000     -1.41380000    0.0330   29.8544
     H      1.40180000     -3.84800000     -3.01410000    0.0019   27.7685
