20
chgs=0 nmr=1 alpha=64.3 b3lypd3vdz=-365.239335681579 
     C     -2.83870000     -1.09330000     -3.13790000    0.0965  144.1249
     O     -1.71160000     -0.46870000     -2.50910000   -0.3150  332.2830
     N      0.29000000     -2.47520000     -0.72790000   -0.2254  267.9323
     C      1.51630000     -2.25140000     -1.46470000    0.0983  141.9468
     C      1.36760000     -2.75080000     -2.94330000    0.0833  123.1290
     O      0.17140000     -2.23790000     -3.52280000   -0.2856  275.6766
     C      1.41510000     -4.27320000     -3.04150000   -0.0069  169.3166
     H     -2.49380000     -1.73900000     -3.96220000    0.0035   28.1864
     H     -0.90150000     -0.86780000     -2.89010000    0.1476   28.3700
     H     -3.34220000     -1.75290000     -2.41580000    0.0090   28.0613
     H     -3.51190000     -0.31800000     -3.53260000    0.0274   27.8798
     H     -0.46940000     -1.80640000     -0.84560000    0.0760   30.4004
     H      2.30700000     -2.84320000     -0.97730000    0.0016   29.1293
     H      2.19480000     -2.32230000     -3.53340000   -0.0071   28.1185
     H     -0.55590000     -2.85860000     -3.27480000    0.1538   30.4135
     H      1.34630000     -4.57280000     -4.09850000    0.0251   30.2007
     H      2.34810000     -4.66960000     -2.61180000    0.0233   30.6231
     H      0.56830000     -4.72120000     -2.50170000    0.0030   30.3673
     H      0.13210000     -3.33170000     -0.23650000    0.0750   31.4159
     H      1.82450000     -1.19670000     -1.41380000    0.0166   28.4450
