15
chgs=0 nmr=1 alpha=53.94 b3lypd3vdz=-378.920377688314 
     N      3.11920000     -0.50300000     -1.99710000   -0.1360  149.6400
     C      3.96600000      0.65520000     -1.66450000    0.0415  160.3625
     C      1.94450000     -0.78610000     -1.39400000    0.1884   34.6702
     O      1.25770000      0.07870000     -0.82990000   -0.3032 -101.3657
     C      4.42820000      3.44170000      0.90960000    0.1781   36.5043
     O      4.96590000      2.35460000      0.66000000   -0.2830  -98.3222
     N      3.18890000      3.51260000      1.46050000   -0.0683  160.7290
     H      3.66780000     -1.30950000     -2.29190000    0.0827   27.7148
     H      3.89510000      0.83610000     -0.58100000    0.0503   27.3738
     H      3.68100000      1.60630000     -2.13800000    0.0333   28.9794
     H      5.01370000      0.41680000     -1.90020000    0.0245   29.2088
     H      1.63630000     -1.84080000     -1.44490000   -0.0205   23.3243
     H      2.70330000      4.40390000      1.49810000    0.0971   27.3237
     H      4.93670000      4.38870000      0.67620000    0.0034   23.2472
     H      2.62700000      2.69190000      1.56460000    0.1117   27.0666
