14
chgs=0 nmr=1 alpha=47.75 b3lypd3vdz=-158.297080881834 
     C      0.45840000     -1.45210000      3.78880000   -0.0647   55.9503
     C      1.01760000     -2.42980000      2.95410000   -0.0586   56.2956
     C     -3.54840000     -0.67920000      4.55730000   -0.0709  180.5193
     C     -3.88230000      0.82070000      4.57630000   -0.0609  181.2120
     H     -0.38490000     -1.72720000      4.42550000    0.0344   25.0595
     H      0.87270000     -0.43320000      3.79930000    0.0274   24.9662
     H      1.88690000     -2.17120000      2.33170000    0.0300   24.9554
     H      0.56610000     -3.43290000      2.95190000    0.0293   24.9566
     H     -4.39500000     -1.32650000      4.82530000    0.0204   30.3778
     H     -2.72210000     -0.89730000      5.25360000    0.0262   30.3358
     H     -4.86980000      0.99170000      4.11760000    0.0201   30.3089
     H     -3.89940000      1.24920000      5.58850000    0.0203   30.3909
     H     -3.20230000     -0.85540000      3.52810000    0.0247   30.0983
     H     -3.09900000      1.26760000      3.94650000    0.0225   30.1197
