11
chgs=0 nmr=1 alpha=37.75 b3lypd3vdz=-359.511534504759 
     C      1.57950000      4.49420000     -1.45790000    0.2190   38.0450
     O      0.32590000      4.42390000     -0.96490000   -0.1956  116.1157
     O      2.47210000      5.11220000     -0.91980000   -0.2426 -115.8253
     N      0.09590000      1.69900000      1.09290000   -0.0566  156.6836
     C      0.90310000      2.70560000      1.48210000    0.1865   34.5049
     O      0.49730000      3.84920000      1.74780000   -0.3093  -73.2481
     H      0.33700000      4.72390000     -0.02600000    0.1713   24.3470
     H      1.70330000      3.85730000     -2.34620000    0.0073   23.8306
     H      0.50170000      0.84260000      0.71010000    0.1063   26.9334
     H     -0.90000000      1.78450000      1.06430000    0.1033   27.1752
     H      1.96370000      2.42910000      1.57540000    0.0104   23.5407
