4
chgs=0 nmr=1 alpha=13.39 b3lypd3vdz=-114.447734325898 
     C      0.90310000      2.70560000      1.48210000    0.1788   -5.4045
     O      0.49730000      3.84920000      1.74780000   -0.2085 -481.4101
     H      1.96370000      2.42910000      1.57540000    0.0141   21.3532
     H      0.24430000      1.88400000      1.16440000    0.0156   21.2741
