20
chgs=0 nmr=1 alpha=69.89 b3lypd3vdz=-328.07473887417 
     C      0.98480000     -0.15760000      3.80220000   -0.0600   59.1583
     C      0.45840000     -1.45210000      3.78880000   -0.0649   57.6855
     C     -1.36200000     -4.02470000      0.28750000    0.0549  163.9938
     N     -2.40610000     -3.22870000     -0.31420000   -0.2402  261.6840
     C     -3.06370000     -0.92600000      3.11590000   -0.0557  156.4829
     C     -4.17810000     -1.39590000      2.16520000    0.1351  -11.4725
     O     -4.36040000     -2.59610000      1.96420000   -0.2115 -377.9159
     H      0.53070000      0.59650000      4.45220000    0.0267   25.3282
     H     -0.38490000     -1.72720000      4.42550000    0.0355   25.2058
     H      1.84490000      0.11660000      3.17370000    0.0336   25.0978
     H      0.89720000     -2.21930000      3.13390000    0.0366   25.1198
     H     -1.46800000     -3.96920000      1.37910000    0.0197   29.1776
     H     -1.43760000     -5.08370000     -0.00650000   -0.0003   28.6928
     H     -3.05840000     -2.77050000      0.31520000    0.0753   31.6338
     H     -0.32890000     -3.74340000      0.03530000   -0.0044   29.0578
     H     -2.51000000     -3.12050000     -1.30290000    0.0679   32.4448
     H     -2.29450000     -1.70630000      3.05990000    0.0616   29.2656
     H     -2.64250000      0.04720000      2.82370000    0.0348   29.2176
     H     -3.40980000     -0.74980000      4.14510000    0.0542   29.1768
     H     -4.78910000     -0.61280000      1.69260000    0.0011   21.0769
