12
chgs=0 nmr=1 alpha=37.43 b3lypd3vdz=-285.477030600232 
     C     -5.95950000     -0.75220000      0.59260000    0.0576  162.5983
     N     -4.93360000     -0.42760000      1.58080000   -0.2540  261.4598
     C     -3.36750000      2.38270000     -0.31390000    0.2452   34.1072
     O     -4.04740000      2.27800000      0.70320000   -0.2600  -99.7572
     O     -3.88670000      2.72240000     -1.49350000   -0.1546  124.9521
     H     -6.64650000     -1.48990000      1.03030000    0.0058   28.7545
     H     -4.60560000      0.53540000      1.61300000    0.0824   30.3250
     H     -5.59000000     -1.27100000     -0.30420000   -0.0111   28.9079
     H     -6.50330000      0.16910000      0.33670000    0.0153   29.1546
     H     -4.37810000     -1.13950000      2.01050000    0.0643   32.5695
     H     -4.86380000      2.83350000     -1.40270000    0.1713   25.1272
     H     -2.28390000      2.19630000     -0.34580000    0.0379   23.5777
