15
chgs=0 nmr=1 alpha=51.77 b3lypd3vdz=-378.910778415826 
     N     -4.14050000     -1.27530000     -1.02540000   -0.1902  247.5588
     C     -3.54700000     -2.02120000     -2.12210000    0.0030  132.3596
     C     -2.54580000     -3.08320000     -1.64360000    0.1016   22.9073
     O     -1.85310000     -3.71080000     -2.46200000   -0.3010  -47.5345
     C     -2.83870000     -1.09330000     -3.13790000    0.1990  123.0950
     O     -1.71160000     -0.46870000     -2.50910000   -0.2996  317.9093
     N     -2.40610000     -3.22870000     -0.31420000   -0.0379  166.1971
     H     -3.49920000     -0.77170000     -0.41380000    0.0892   30.2982
     H     -4.37040000     -2.54620000     -2.62940000    0.0179   28.7065
     H     -2.49380000     -1.73900000     -3.96220000    0.0157   26.8170
     H     -0.90150000     -0.86780000     -2.89010000    0.1570   30.5992
     H     -3.05840000     -2.77050000      0.31520000    0.0678   25.2055
     H     -5.09330000     -1.42480000     -0.76120000    0.0805   30.6760
     H     -3.51190000     -0.31800000     -3.53260000    0.0070   27.9208
     H     -1.68320000     -3.77990000      0.10240000    0.0900   27.6221
