15
chgs=0 nmr=1 alpha=54.59 b3lypd3vdz=-287.670958708702 
     C     -1.35040000      1.82310000      1.05140000    0.0050  173.9375
     C     -1.91270000      0.47570000      1.51600000    0.0850   29.8677
     O     -1.83470000     -0.51030000      0.76680000   -0.3096  -87.5581
     N     -2.50100000      0.37410000      2.72560000   -0.2539  153.5626
     C     -3.06370000     -0.92600000      3.11590000    0.0862  146.1031
     C     -2.78870000      1.44460000      3.69700000    0.0717  146.2407
     H     -1.61820000      2.64140000      1.72800000    0.0007   29.7702
     H     -2.29450000     -1.70630000      3.05990000    0.0407   27.9577
     H     -1.88090000      1.68360000      4.27730000    0.0363   27.8197
     H     -3.13200000      2.35020000      3.17990000    0.0465   27.9352
     H     -0.25490000      1.72910000      1.08280000    0.0542   29.7781
     H     -1.73350000      2.04110000      0.04360000    0.0532   29.7272
     H     -3.86060000     -1.26200000      2.43610000    0.0366   27.9340
     H     -3.40980000     -0.74980000      4.14510000    0.0114   29.0693
     H     -3.57200000      0.99770000      4.32680000    0.0360   28.2601
