19
chgs=0 nmr=1 alpha=83.95 b3lypd3vdz=-273.706090484034 
     C      2.64120000     -0.80650000      2.18810000   -0.0657   57.5770
     C      2.12680000     -2.09980000      2.16000000   -0.0607   60.6794
     C      5.96040000     -2.19040000     -2.23880000    0.0484   52.9808
     C      6.02880000     -1.42020000     -0.11300000   -0.0075   28.4112
     C      6.04520000     -0.70090000      1.09900000   -0.0023   77.4083
     C      5.43980000      0.31980000     -1.99600000    0.0499  179.7562
     C      5.83470000     -1.03550000     -1.49250000   -0.2081   43.6444
     H      3.50920000     -0.57500000      1.56880000    0.0366   24.8756
     H      2.57640000     -2.86320000      1.52270000    0.0244   25.3479
     H      2.20230000     -0.02440000      2.82510000    0.0211   25.1824
     H      1.25750000     -2.35840000      2.78240000    0.0241   25.3199
     H      5.91250000     -2.32370000     -3.31810000    0.0001   25.6472
     H      5.87840000      0.37770000      1.10230000    0.0144   26.0668
     H      5.58910000      0.39330000     -3.08410000    0.0263   29.4074
     H      6.04570000      1.11050000     -1.53420000    0.0333   29.6616
     H      6.15540000     -3.04570000     -1.57510000    0.0087   25.1151
     H      6.20500000     -2.50590000     -0.09900000   -0.0223   23.9606
     H      6.21940000     -1.25390000      2.03380000    0.0294   25.8539
     H      4.39210000      0.55820000     -1.76030000    0.0499   29.6616
