16
chgs=0 nmr=1 alpha=67.47 b3lypd3vdz=-234.399824184037 
     C      2.64120000     -0.80650000      2.18810000   -0.0579   55.0856
     C      2.12680000     -2.09980000      2.16000000   -0.0624   61.9332
     C      6.02880000     -1.42020000     -0.11300000   -0.0350   42.3975
     C      6.25690000     -2.82580000     -0.09490000   -0.0106   58.9104
     C      6.04520000     -0.70090000      1.09900000   -0.0195   57.9245
     C      6.26560000     -1.40060000      2.28170000    0.0214   70.7315
     H      3.50920000     -0.57500000      1.56880000    0.0367   25.0848
     H      2.57640000     -2.86320000      1.52270000    0.0263   25.2934
     H      2.20230000     -0.02440000      2.82510000    0.0215   25.0598
     H      1.25750000     -2.35840000      2.78240000    0.0239   25.3855
     H      5.87840000      0.37770000      1.10230000   -0.0117   25.0290
     H      6.27140000     -0.86200000      3.23210000    0.0198   26.1455
     H      5.88110000     -1.12740000     -1.16300000   -0.0154   24.0106
     H      6.21640000     -3.17810000     -1.13620000    0.0153   25.2446
     H      6.42920000     -3.37890000      0.84020000    0.0229   22.6791
     H      6.42710000     -2.48870000      2.28190000    0.0248   23.3810
