9
chgs=0 nmr=1 alpha=32.1 b3lypd3vdz=-209.101007934864 
     N     -4.14050000     -1.27530000     -1.02540000   -0.1605  151.8103
     C     -5.44150000     -1.47950000     -0.66470000    0.2013   39.4745
     O     -6.22450000     -2.15670000     -1.31890000   -0.2786  -83.3495
     C     -3.54700000     -2.02120000     -2.12210000    0.0480  169.7154
     H     -3.49920000     -0.77170000     -0.41380000    0.0860   27.3611
     H     -4.37040000     -2.54620000     -2.62940000    0.0556   26.8697
     H     -5.81100000     -0.96070000      0.23210000   -0.0114   23.2513
     H     -2.83000000     -2.78180000     -1.77940000    0.0299   29.3723
     H     -3.04350000     -1.36160000     -2.84420000    0.0296   29.3489
