6
chgs=0 nmr=1 alpha=20.58 b3lypd3vdz=-169.812949389591 
     C      0.07660000     -3.63300000     -0.06370000    0.1652   37.1815
     O      0.98870000     -4.40750000      0.25670000   -0.2815 -124.4128
     N      0.29000000     -2.47520000     -0.72790000   -0.0750  168.5105
     H     -0.46940000     -1.80640000     -0.84560000    0.0977   27.4808
     H     -0.95650000     -3.91430000      0.18850000   -0.0075   23.0576
     H      1.13690000     -2.32060000     -1.23670000    0.1011   27.5060
