16
chgs=0 nmr=1 alpha=57.7 b3lypd3vdz=-362.864410978674 
     C      3.96600000      0.65520000     -1.66450000   -0.0898  148.6803
     C      3.56570000      1.99100000     -2.32950000    0.1632   -9.4111
     O      4.40780000      2.72380000     -2.83520000   -0.2086 -347.3373
     C      5.43980000      0.31980000     -1.99600000   -0.0119  180.1255
     C      4.42820000      3.44170000      0.90960000    0.1848   36.2779
     O      4.96590000      2.35460000      0.66000000   -0.2758  -97.0450
     N      3.18890000      3.51260000      1.46050000   -0.0720  162.9102
     H      3.89510000      0.83610000     -0.58100000    0.0451   28.5385
     H      5.58910000      0.39330000     -3.08410000    0.0174   30.4485
     H      6.04570000      1.11050000     -1.53420000    0.0397   29.6923
     H      3.33350000     -0.20980000     -1.91290000    0.0131   29.1417
     H      2.49780000      2.24810000     -2.27050000   -0.0254   21.1867
     H      5.72960000     -0.67490000     -1.62650000    0.0062   30.7172
     H      2.70330000      4.40390000      1.49810000    0.0994   27.4207
     H      4.93670000      4.38870000      0.67620000    0.0143   23.4103
     H      2.62700000      2.69190000      1.56460000    0.1002   27.5125
