19
chgs=0 nmr=1 alpha=59.97 b3lypd3vdz=-385.071527343324 
     C     -1.91270000      0.47570000      1.51600000    0.1735   -4.8977
     O     -1.83470000     -0.51030000      0.76680000   -0.2010 -510.7248
     C     -2.83870000     -1.09330000     -3.13790000    0.0998  143.9771
     O     -1.71160000     -0.46870000     -2.50910000   -0.3161  335.6400
     O      0.17140000     -2.23790000     -3.52280000   -0.2896  275.3496
     C      1.41510000     -4.27320000     -3.04150000   -0.0654  170.3495
     C      1.36760000     -2.75080000     -2.94330000    0.1272  133.3155
     H     -1.50900000      1.44310000      1.18240000    0.0174   21.2050
     H     -2.39240000      0.39280000      2.50240000    0.0103   21.1409
     H     -2.49380000     -1.73900000     -3.96220000   -0.0079   28.3542
     H     -0.90150000     -0.86780000     -2.89010000    0.1367   28.6137
     H     -3.34220000     -1.75290000     -2.41580000    0.0090   28.0633
     H     -3.51190000     -0.31800000     -3.53260000    0.0177   28.0783
     H     -0.55590000     -2.85860000     -3.27480000    0.1616   31.4543
     H      1.34630000     -4.57280000     -4.09850000    0.0324   29.9435
     H      2.34810000     -4.66960000     -2.61180000    0.0264   30.1042
     H      0.56830000     -4.72120000     -2.50170000    0.0236   30.5560
     H      2.19480000     -2.32230000     -3.53340000    0.0250   27.7575
     H      1.47190000     -2.40040000     -1.90580000    0.0193   27.5664
