11
chgs=0 nmr=1 alpha=39.92 b3lypd3vdz=-268.223882944098 
     C      1.51630000     -2.25140000     -1.46470000   -0.0226  137.9027
     C      1.94450000     -0.78610000     -1.39400000    0.1647  -10.8645
     O      1.25770000      0.07870000     -0.82990000   -0.2094 -396.7533
     C      1.36760000     -2.75080000     -2.94330000    0.1249  130.9999
     O      0.17140000     -2.23790000     -3.52280000   -0.2753  281.7929
     H      2.30700000     -2.84320000     -0.97730000    0.0196   29.3592
     H      2.19480000     -2.32230000     -3.53340000    0.0242   27.2381
     H     -0.55590000     -2.85860000     -3.27480000    0.1501   31.0714
     H      0.58470000     -2.42140000     -0.90500000    0.0186   29.2259
     H      2.90130000     -0.55550000     -1.88520000   -0.0079   21.3017
     H      1.40180000     -3.84800000     -3.01410000    0.0130   27.5381
