16
chgs=0 nmr=1 alpha=58.04 b3lypd3vdz=-362.847846590114 
     C      4.42820000      3.44170000      0.90960000    0.1836   -6.3692
     O      4.96590000      2.35460000      0.66000000   -0.2039 -461.0398
     C      1.51630000     -2.25140000     -1.46470000   -0.0092  169.1832
     C      1.94450000     -0.78610000     -1.39400000    0.0691   26.5767
     O      1.25770000      0.07870000     -0.82990000   -0.2898  -98.9181
     N      3.11920000     -0.50300000     -1.99710000   -0.1357  160.8551
     C      3.96600000      0.65520000     -1.66450000    0.0447  160.2449
     H      4.93670000      4.38870000      0.67620000    0.0217   21.3354
     H      3.42440000      3.49910000      1.35580000    0.0305   21.3018
     H      2.30700000     -2.84320000     -0.97730000    0.0314   29.8443
     H      3.66780000     -1.30950000     -2.29190000    0.0779   27.7114
     H      3.89510000      0.83610000     -0.58100000    0.0473   27.9018
     H      0.58470000     -2.42140000     -0.90500000    0.0415   29.9264
     H      1.41200000     -2.60180000     -2.50220000    0.0407   29.5457
     H      3.68100000      1.60630000     -2.13800000    0.0304   29.2466
     H      5.01370000      0.41680000     -1.90020000    0.0198   29.2746
