14
chgs=0 nmr=1 alpha=52.42 b3lypd3vdz=-212.419526488052 
     C      5.96040000     -2.19040000     -2.23880000   -0.0221   63.6416
     N      3.11920000     -0.50300000     -1.99710000   -0.2186  244.0379
     C      3.96600000      0.65520000     -1.66450000    0.0920  154.0474
     C      5.43980000      0.31980000     -1.99600000    0.0408  158.0426
     C      5.83470000     -1.03550000     -1.49250000   -0.0799   42.7849
     H      5.91250000     -2.32370000     -3.31810000    0.0135   25.5738
     H      3.66780000     -1.30950000     -2.29190000    0.0734   30.9202
     H      3.89510000      0.83610000     -0.58100000   -0.0053   28.6520
     H      5.58910000      0.39330000     -3.08410000    0.0159   29.1064
     H      6.04570000      1.11050000     -1.53420000    0.0163   29.1588
     H      6.15540000     -3.04570000     -1.57510000    0.0152   25.7858
     H      2.24940000     -0.71260000     -1.55050000    0.0693   31.7070
     H      3.68100000      1.60630000     -2.13800000    0.0030   28.7740
     H      5.98240000     -1.32830000     -0.44250000   -0.0135   24.8543
