17
chgs=0 nmr=1 alpha=59.03 b3lypd3vdz=-197.592130267861 
     C      2.64120000     -0.80650000      2.18810000   -0.0576   60.0413
     C      2.12680000     -2.09980000      2.16000000   -0.0549   58.5980
     C      1.41510000     -4.27320000     -3.04150000   -0.0180  173.2421
     C      1.51630000     -2.25140000     -1.46470000   -0.0322  169.2969
     C      1.36760000     -2.75080000     -2.94330000   -0.0640  169.6712
     H      3.50920000     -0.57500000      1.56880000    0.0267   25.3918
     H      2.57640000     -2.86320000      1.52270000    0.0326   25.2369
     H      2.20230000     -0.02440000      2.82510000    0.0294   25.1816
     H      1.25750000     -2.35840000      2.78240000    0.0279   25.2223
     H      1.34630000     -4.57280000     -4.09850000    0.0125   30.1828
     H      2.34810000     -4.66960000     -2.61180000    0.0175   30.5824
     H      0.56830000     -4.72120000     -2.50170000    0.0159   30.4613
     H      2.30700000     -2.84320000     -0.97730000    0.0134   30.7282
     H      2.19480000     -2.32230000     -3.53340000    0.0062   30.0452
     H      0.58470000     -2.42140000     -0.90500000    0.0214   30.3540
     H      1.82450000     -1.19670000     -1.41380000    0.0162   30.1418
     H      0.44400000     -2.35480000     -3.39070000    0.0070   30.1333
