18
chgs=0 nmr=1 alpha=70.36 b3lypd3vdz=-235.643015638994 
     C     -3.54840000     -0.67920000      4.55730000   -0.0701  180.4267
     C     -3.88230000      0.82070000      4.57630000   -0.0626  181.2846
     C      2.08100000      0.19180000      3.00120000   -0.0269   53.8112
     C      2.64120000     -0.80650000      2.18810000    0.0008   68.1883
     C      0.98480000     -0.15760000      3.80220000   -0.0228   56.0789
     C      0.45840000     -1.45210000      3.78880000   -0.0027   71.8972
     H     -4.39500000     -1.32650000      4.82530000    0.0200   30.3771
     H     -2.72210000     -0.89730000      5.25360000    0.0265   30.3260
     H     -4.86980000      0.99170000      4.11760000    0.0200   30.3121
     H     -3.89940000      1.24920000      5.58850000    0.0196   30.3961
     H     -3.20230000     -0.85540000      3.52810000    0.0245   30.0864
     H     -3.09900000      1.26760000      3.94650000    0.0237   30.1011
     H      3.50920000     -0.57500000      1.56880000    0.0148   26.1048
     H      0.53070000      0.59650000      4.45220000   -0.0189   25.0774
     H     -0.38490000     -1.72720000      4.42550000    0.0217   26.0639
     H      2.49250000      1.21150000      2.97110000   -0.0133   24.7148
     H      2.23470000     -1.82840000      2.16590000    0.0249   23.5199
     H      0.89720000     -2.21930000      3.13390000    0.0209   23.8746
