18
chgs=0 nmr=1 alpha=84.07 b3lypd3vdz=-289.756145399868 
     C      6.02880000     -1.42020000     -0.11300000   -0.0004   38.9860
     C      6.25690000     -2.82580000     -0.09490000   -0.0043   30.7151
     C      6.47650000     -3.53090000      1.09720000   -0.0098   78.3039
     N      3.11920000     -0.50300000     -1.99710000   -0.2120  245.0853
     C      3.96600000      0.65520000     -1.66450000    0.1022  144.8096
     C      5.43980000      0.31980000     -1.99600000    0.0453  161.0523
     C      5.83470000     -1.03550000     -1.49250000   -0.0773   27.0682
     H      6.64460000     -4.61050000      1.09690000    0.0177   26.3365
     H      3.66780000     -1.30950000     -2.29190000    0.0693   31.5463
     H      3.89510000      0.83610000     -0.58100000   -0.0038   28.3970
     H      5.58910000      0.39330000     -3.08410000    0.0166   29.3113
     H      6.04570000      1.11050000     -1.53420000    0.0189   29.0887
     H      6.04160000     -0.85880000      0.83290000   -0.0155   23.8815
     H      6.21640000     -3.17810000     -1.13620000   -0.0306   23.7850
     H      6.47380000     -2.95250000      2.03290000    0.0120   25.9549
     H      2.24940000     -0.71260000     -1.55050000    0.0731   31.8092
     H      3.68100000      1.60630000     -2.13800000    0.0027   28.5589
     H      5.93480000     -1.95560000     -2.08700000   -0.0041   23.8423
