11
chgs=0 nmr=1 alpha=34.76 b3lypd3vdz=-210.250352840357 
     N      5.62010000      4.82020000     -0.78950000   -0.2064  244.0339
     C      5.13490000      4.75780000      0.58520000    0.0220  159.8125
     C      1.57950000      4.49420000     -1.45790000    0.1830    2.8040
     O      2.47210000      5.11220000     -0.91980000   -0.1735 -400.4571
     H      6.12690000      3.95360000     -0.98840000    0.0600   32.0202
     H      4.80970000      4.78470000     -1.41320000    0.0615   30.6688
     H      5.99190000      4.83530000      1.27870000    0.0112   29.0529
     H      4.47090000      5.61460000      0.77610000    0.0315   28.4569
     H      4.62640000      3.81080000      0.81860000   -0.0140   29.0846
     H      1.70330000      3.85730000     -2.34620000    0.0105   21.5597
     H      0.55720000      4.43690000     -1.05590000    0.0142   21.6080
