19
chgs=0 nmr=1 alpha=71.21 b3lypd3vdz=-310.817435450089 
     C      2.64120000     -0.80650000      2.18810000   -0.0521   54.8225
     C      2.12680000     -2.09980000      2.16000000   -0.0702   63.4635
     C      6.02880000     -1.42020000     -0.11300000   -0.0887   58.6048
     C      6.04520000     -0.70090000      1.09900000   -0.0373   58.6061
     C      1.51630000     -2.25140000     -1.46470000   -0.0416  157.8692
     C      1.94450000     -0.78610000     -1.39400000    0.1315   -8.2379
     O      1.25770000      0.07870000     -0.82990000   -0.2135 -396.0713
     H      3.50920000     -0.57500000      1.56880000    0.0332   25.3357
     H      2.57640000     -2.86320000      1.52270000    0.0194   25.5891
     H      2.20230000     -0.02440000      2.82510000    0.0273   25.2148
     H      1.25750000     -2.35840000      2.78240000    0.0261   25.4966
     H      5.87840000      0.37770000      1.10230000    0.0442   25.0915
     H      5.88110000     -1.12740000     -1.16300000    0.0313   24.9236
     H      6.20500000     -2.50590000     -0.09900000    0.0267   25.4584
     H      6.21940000     -1.25390000      2.03380000    0.0440   24.7972
     H      2.30700000     -2.84320000     -0.97730000    0.0426   29.5139
     H      0.58470000     -2.42140000     -0.90500000    0.0441   29.5134
     H      1.41200000     -2.60180000     -2.50220000    0.0421   29.3636
     H      2.90130000     -0.55550000     -1.88520000   -0.0090   21.3283
