6
chgs=0 nmr=1 alpha=22.56 b3lypd3vdz=-78.528746019721 
     C      6.25690000     -2.82580000     -0.09490000   -0.0775   58.0354
     C      6.47650000     -3.53090000      1.09720000   -0.0410   63.3610
     H      6.64460000     -4.61050000      1.09690000    0.0329   25.1948
     H      6.08070000     -1.74010000     -0.10890000    0.0248   25.4275
     H      6.21640000     -3.17810000     -1.13620000    0.0272   25.1416
     H      6.47380000     -2.95250000      2.03290000    0.0336   25.0686
