11
chgs=0 nmr=1 alpha=34.45 b3lypd3vdz=-210.240391390973 
     C     -3.36750000      2.38270000     -0.31390000    0.1949   -3.0077
     O     -4.04740000      2.27800000      0.70320000   -0.1981 -424.4461
     C     -5.95950000     -0.75220000      0.59260000    0.0559  162.9111
     N     -4.93360000     -0.42760000      1.58080000   -0.2538  259.6180
     H     -2.28390000      2.19630000     -0.34580000    0.0184   21.4075
     H     -3.79600000      2.66310000     -1.28740000    0.0193   21.4016
     H     -6.64650000     -1.48990000      1.03030000    0.0059   28.7860
     H     -4.60560000      0.53540000      1.61300000    0.0798   30.8039
     H     -5.59000000     -1.27100000     -0.30420000   -0.0118   28.9980
     H     -6.50330000      0.16910000      0.33670000    0.0243   29.1096
     H     -4.37810000     -1.13950000      2.01050000    0.0653   32.5162
