17
chgs=0 nmr=1 alpha=58.49 b3lypd3vdz=-197.579544551413 
     C      0.98480000     -0.15760000      3.80220000   -0.0610   59.6632
     C      0.45840000     -1.45210000      3.78880000   -0.0619   57.5869
     C     -3.06370000     -0.92600000      3.11590000   -0.0195  162.9090
     C     -3.54840000     -0.67920000      4.55730000   -0.0664  173.4393
     C     -3.88230000      0.82070000      4.57630000   -0.0204  162.7143
     H      0.53070000      0.59650000      4.45220000    0.0288   25.2143
     H     -0.38490000     -1.72720000      4.42550000    0.0406   25.0566
     H      1.84490000      0.11660000      3.17370000    0.0308   25.1040
     H      0.89720000     -2.21930000      3.13390000    0.0287   25.1217
     H     -2.29450000     -1.70630000      3.05990000    0.0068   29.9010
     H     -4.39500000     -1.32650000      4.82530000    0.0070   30.2207
     H     -2.72210000     -0.89730000      5.25360000    0.0092   30.1094
     H     -4.86980000      0.99170000      4.11760000    0.0206   29.7335
     H     -3.89940000      1.24920000      5.58850000    0.0079   29.8391
     H     -2.64250000      0.04720000      2.82370000    0.0142   30.4015
     H     -3.86060000     -1.26200000      2.43610000    0.0158   29.7736
     H     -3.09900000      1.26760000      3.94650000    0.0188   30.3328
