9
chgs=0 nmr=1 alpha=31.77 b3lypd3vdz=-209.095820048011 
     N     -2.50100000      0.37410000      2.72560000   -0.1421  155.2644
     C     -3.06370000     -0.92600000      3.11590000    0.0597  162.4702
     C     -1.91270000      0.47570000      1.51600000    0.2072   38.3472
     O     -1.83470000     -0.51030000      0.76680000   -0.2983 -112.6679
     H     -2.29450000     -1.70630000      3.05990000    0.0461   28.2931
     H     -2.69620000      1.10040000      3.38470000    0.0799   26.9664
     H     -3.86060000     -1.26200000      2.43610000    0.0430   28.4679
     H     -3.40980000     -0.74980000      4.14510000    0.0147   29.1925
     H     -1.50900000      1.44310000      1.18240000   -0.0100   23.0552
