15
chgs=0 nmr=1 alpha=50.32 b3lypd3vdz=-233.523194397309 
     C     -2.83870000     -1.09330000     -3.13790000   -0.0605  181.5649
     C     -3.77040000     -0.02030000     -3.68410000   -0.0683  180.6583
     C     -7.17340000      0.66390000     -1.24020000   -0.0516  161.1788
     C     -7.71910000      2.04180000     -1.51110000    0.1133    3.5484
     O     -8.86560000      2.36260000     -1.68260000   -0.1831 -325.5027
     H     -2.49380000     -1.73900000     -3.96220000    0.0221   30.3177
     H     -3.25600000      0.55400000     -4.46900000    0.0232   30.2807
     H     -4.68470000     -0.46680000     -4.10730000    0.0235   30.3400
     H     -4.05240000      0.68150000     -2.88650000    0.0252   30.3889
     H     -3.34220000     -1.75290000     -2.41580000    0.0193   30.4341
     H     -1.97400000     -0.61410000     -2.65550000    0.0226   30.3316
     H     -6.30940000      0.50900000     -1.90500000    0.0484   29.3213
     H     -7.93760000     -0.07880000     -1.49670000    0.0383   29.8028
     H     -6.85530000      0.58210000     -0.19040000    0.0554   29.4129
     H     -6.91510000      2.79240000     -1.52410000   -0.0280   21.7224
