13
chgs=0 nmr=1 alpha=48.22 b3lypd3vdz=-232.284779297723 
     C      0.98480000     -0.15760000      3.80220000   -0.0605   59.2529
     C      0.45840000     -1.45210000      3.78880000   -0.0624   57.6544
     C     -3.06370000     -0.92600000      3.11590000   -0.0570  157.5213
     C     -4.17810000     -1.39590000      2.16520000    0.1265   -7.1750
     O     -4.36040000     -2.59610000      1.96420000   -0.2075 -391.0988
     H      0.53070000      0.59650000      4.45220000    0.0276   25.3324
     H     -0.38490000     -1.72720000      4.42550000    0.0377   25.2032
     H      1.84490000      0.11660000      3.17370000    0.0329   25.1222
     H      0.89720000     -2.21930000      3.13390000    0.0325   25.1471
     H     -2.29450000     -1.70630000      3.05990000    0.0564   29.4195
     H     -2.64250000      0.04720000      2.82370000    0.0290   29.3915
     H     -3.40980000     -0.74980000      4.14510000    0.0513   29.2777
     H     -4.78910000     -0.61280000      1.69260000   -0.0065   21.2264
