16
chgs=0 nmr=1 alpha=68.36 b3lypd3vdz=-325.649038594497 
     C      4.42820000      3.44170000      0.90960000    0.1851   -6.4256
     O      4.96590000      2.35460000      0.66000000   -0.1907 -467.5188
     C      6.02880000     -1.42020000     -0.11300000    0.0113   42.9063
     N      6.20610000     -3.26820000     -1.40250000   -0.0679  182.9873
     C      6.25690000     -2.82580000     -0.09490000   -0.1057   46.6417
     C      6.04520000     -0.70090000      1.09900000    0.0190   67.7006
     C      6.47650000     -3.53090000      1.09720000   -0.0371  122.0696
     H      4.93670000      4.38870000      0.67620000    0.0207   21.2958
     H      3.42440000      3.49910000      1.35580000    0.0227   21.2926
     H      6.40150000     -4.21130000     -1.70730000    0.0858   28.1860
     H      5.87840000      0.37770000      1.10230000    0.0308   24.5191
     H      6.64460000     -4.61050000      1.09690000   -0.0222   28.0205
     H      5.88110000     -1.12740000     -1.16300000   -0.0464   25.4998
     H      6.02880000     -2.49070000     -2.00580000    0.0668   28.8406
     H      6.21940000     -1.25390000      2.03380000    0.0256   23.8792
     H      6.47380000     -2.95250000      2.03290000    0.0021   26.3776
