16
chgs=0 nmr=1 alpha=53.41 b3lypd3vdz=-304.895210633799 
     N      3.11920000     -0.50300000     -1.99710000   -0.0659  165.6983
     C      1.94450000     -0.78610000     -1.39400000    0.1715   36.3732
     O      1.25770000      0.07870000     -0.82990000   -0.2719 -112.0699
     C      2.64600000      1.59200000      2.95990000   -0.0075  165.0716
     N      3.18890000      3.51260000      1.46050000   -0.2108  248.0933
     C      2.37390000      2.32220000      1.61150000    0.0313  151.2045
     H      3.66780000     -1.30950000     -2.29190000    0.0909   27.9618
     H      3.69420000      0.28340000     -1.77130000    0.0998   27.6293
     H      1.63630000     -1.84080000     -1.44490000   -0.0019   23.2899
     H      3.74190000      1.55800000      3.06080000   -0.0046   30.8371
     H      2.25480000      2.20950000      3.78430000    0.0049   30.2543
     H      2.70330000      4.40390000      1.49810000    0.0740   30.8045
     H      2.62670000      1.62560000      0.80080000    0.0076   28.2663
     H      2.23450000      0.57230000      2.99000000    0.0037   30.4399
     H      4.10140000      3.46040000      1.05490000    0.0646   31.6032
     H      1.31330000      2.59870000      1.51820000    0.0142   28.7927
