12
chgs=0 nmr=1 alpha=56.31 b3lypd3vdz=-211.207417593243 
     N      6.20610000     -3.26820000     -1.40250000   -0.0641  184.3292
     C      6.25690000     -2.82580000     -0.09490000    0.0271   53.1763
     C      6.47650000     -3.53090000      1.09720000   -0.0145   99.4071
     C      6.26560000     -1.40060000      2.28170000   -0.0429   90.7518
     C      6.47310000     -2.79860000      2.28190000   -0.0113   52.7858
     H      6.40150000     -4.21130000     -1.70730000    0.0935   27.8440
     H      6.64460000     -4.61050000      1.09690000   -0.0472   26.7857
     H      6.27140000     -0.86200000      3.23210000   -0.0074   27.1145
     H      6.63660000     -3.31610000      3.23010000   -0.0316   25.2408
     H      6.02880000     -2.49070000     -2.00580000    0.0978   28.1095
     H      6.08070000     -1.74010000     -0.10890000    0.0002   23.4511
     H      6.09140000     -0.84760000      1.34690000    0.0003   25.2150
