20
chgs=0 nmr=1 alpha=69.68 b3lypd3vdz=-328.07365785963 
     C      2.12680000     -2.09980000      2.16000000   -0.0650   58.9399
     C      1.01760000     -2.42980000      2.95410000   -0.0629   55.7916
     N      0.09590000      1.69900000      1.09290000   -0.2602  261.9189
     C     -1.35040000      1.82310000      1.05140000    0.0641  161.7550
     C      1.51630000     -2.25140000     -1.46470000   -0.0439  157.1710
     C      1.94450000     -0.78610000     -1.39400000    0.1391  -11.5880
     O      1.25770000      0.07870000     -0.82990000   -0.2032 -375.7290
     H      2.57640000     -2.86320000      1.52270000    0.0238   25.4244
     H      2.53330000     -1.07790000      2.18220000    0.0386   25.2410
     H      0.57880000     -1.66260000      3.60900000    0.0400   25.0534
     H      0.56610000     -3.43290000      2.95190000    0.0288   25.0312
     H      0.50170000      0.84260000      0.71010000    0.0811   28.6914
     H     -1.61820000      2.64140000      1.72800000    0.0078   28.8566
     H      0.69480000      2.44590000      1.38170000    0.0583   31.9309
     H     -1.75410000      0.85570000      1.38500000    0.0090   28.3460
     H     -1.73350000      2.04110000      0.04360000   -0.0047   28.3452
     H      2.30700000     -2.84320000     -0.97730000    0.0460   29.4621
     H      0.58470000     -2.42140000     -0.90500000    0.0503   29.2493
     H      1.41200000     -2.60180000     -2.50220000    0.0492   29.2142
     H      2.90130000     -0.55550000     -1.88520000    0.0040   21.2823
