9
chgs=0 nmr=1 alpha=31.36 b3lypd3vdz=-209.113612957314 
     C     -3.54700000     -2.02120000     -2.12210000   -0.0003  168.9950
     C     -2.54580000     -3.08320000     -1.64360000    0.0366   29.9099
     O     -1.85310000     -3.71080000     -2.46200000   -0.2866  -75.9338
     N     -2.40610000     -3.22870000     -0.31420000   -0.0506  166.6948
     H     -4.37040000     -2.54620000     -2.62940000    0.0534   29.5332
     H     -3.05840000     -2.77050000      0.31520000    0.0894   27.3139
     H     -3.99630000     -1.45650000     -1.29190000    0.0041   30.1746
     H     -3.04350000     -1.36160000     -2.84420000    0.0597   29.4291
     H     -1.68320000     -3.77990000      0.10240000    0.0943   27.7901
