13
chgs=0 nmr=1 alpha=59.88 b3lypd3vdz=-195.17024723992 
     C      5.96040000     -2.19040000     -2.23880000    0.0465   53.7007
     C      6.02880000     -1.42020000     -0.11300000   -0.0048   28.1834
     C      6.04520000     -0.70090000      1.09900000   -0.0033   78.7031
     C      5.43980000      0.31980000     -1.99600000    0.0515  179.7675
     C      5.83470000     -1.03550000     -1.49250000   -0.2086   43.6337
     H      5.91250000     -2.32370000     -3.31810000   -0.0014   25.7078
     H      5.87840000      0.37770000      1.10230000    0.0077   26.1237
     H      5.58910000      0.39330000     -3.08410000    0.0254   29.4339
     H      6.04570000      1.11050000     -1.53420000    0.0329   29.6688
     H      6.15540000     -3.04570000     -1.57510000    0.0081   25.1785
     H      6.20500000     -2.50590000     -0.09900000   -0.0244   24.0724
     H      6.21940000     -1.25390000      2.03380000    0.0231   25.9525
     H      4.39210000      0.55820000     -1.76030000    0.0472   29.6938
