16
chgs=0 nmr=1 alpha=68.3 b3lypd3vdz=-325.691391975089 
     C      6.02880000     -1.42020000     -0.11300000   -0.0271   69.8906
     C      6.04520000     -0.70090000      1.09900000    0.0053   57.1070
     C      6.26560000     -1.40060000      2.28170000   -0.0274   51.9787
     C      6.47310000     -2.79860000      2.28190000   -0.0077   71.5383
     C      4.42820000      3.44170000      0.90960000    0.1785   36.4137
     O      4.96590000      2.35460000      0.66000000   -0.2635  -97.7343
     N      3.18890000      3.51260000      1.46050000   -0.0707  162.1121
     H      5.87840000      0.37770000      1.10230000   -0.0107   23.8587
     H      6.27140000     -0.86200000      3.23210000   -0.0260   24.9089
     H      6.63660000     -3.31610000      3.23010000    0.0089   26.2479
     H      5.88110000     -1.12740000     -1.16300000    0.0115   25.7320
     H      6.20500000     -2.50590000     -0.09900000    0.0044   24.1783
     H      6.47580000     -3.37700000      1.34620000    0.0208   23.8266
     H      2.70330000      4.40390000      1.49810000    0.0977   27.3699
     H      4.93670000      4.38870000      0.67620000    0.0034   23.2164
     H      2.62700000      2.69190000      1.56460000    0.1025   27.4146
