13
chgs=0 nmr=1 alpha=42.89 b3lypd3vdz=-174.321422217524 
     C      2.64120000     -0.80650000      2.18810000   -0.0630   63.5823
     C      2.12680000     -2.09980000      2.16000000   -0.0413   57.3452
     N      0.29000000     -2.47520000     -0.72790000   -0.2396  262.8903
     C      1.51630000     -2.25140000     -1.46470000    0.0569  161.4441
     H      3.50920000     -0.57500000      1.56880000    0.0226   25.3981
     H      2.57640000     -2.86320000      1.52270000    0.0247   25.2144
     H      2.20230000     -0.02440000      2.82510000    0.0258   25.3060
     H      1.25750000     -2.35840000      2.78240000    0.0230   25.1328
     H     -0.46940000     -1.80640000     -0.84560000    0.0787   31.8916
     H      2.30700000     -2.84320000     -0.97730000    0.0133   28.8927
     H      0.13210000     -3.33170000     -0.23650000    0.0737   31.8753
     H      1.82450000     -1.19670000     -1.41380000    0.0211   28.7833
     H      1.41200000     -2.60180000     -2.50220000    0.0042   28.3079
