13
chgs=0 nmr=1 alpha=47.52 b3lypd3vdz=-232.327243878922 
     C     -5.95950000     -0.75220000      0.59260000   -0.0073  177.4107
     C     -6.72760000      0.54920000      0.23110000   -0.0719  173.3149
     C     -7.17340000      0.66390000     -1.24020000   -0.0034  144.8286
     C     -7.71910000      2.04180000     -1.51110000    0.1471    1.2548
     O     -8.86560000      2.36260000     -1.68260000   -0.1840 -313.3830
     H     -6.64650000     -1.48990000      1.03030000    0.0244   30.1859
     H     -7.60780000      0.64120000      0.88650000    0.0259   30.2217
     H     -6.07680000      1.40620000      0.44970000    0.0116   29.9103
     H     -6.30940000      0.50900000     -1.90500000    0.0227   29.5696
     H     -7.93760000     -0.07880000     -1.49670000    0.0188   29.6106
     H     -5.18710000     -0.50780000      1.33670000    0.0274   29.9012
     H     -5.59000000     -1.27100000     -0.30420000    0.0193   30.6348
     H     -6.91510000      2.79240000     -1.52410000   -0.0307   21.8569
