10
chgs=0 nmr=1 alpha=36.5 b3lypd3vdz=-193.040254597144 
     C      1.51630000     -2.25140000     -1.46470000   -0.0415  150.1081
     C      1.94450000     -0.78610000     -1.39400000    0.1553  -12.3076
     O      1.25770000      0.07870000     -0.82990000   -0.2131 -385.8213
     C      1.36760000     -2.75080000     -2.94330000   -0.0450  182.0092
     H      2.30700000     -2.84320000     -0.97730000    0.0302   29.3722
     H      2.19480000     -2.32230000     -3.53340000    0.0209   30.1417
     H      0.58470000     -2.42140000     -0.90500000    0.0280   29.1821
     H      2.90130000     -0.55550000     -1.88520000   -0.0088   21.4260
     H      0.44400000     -2.35480000     -3.39070000    0.0404   30.4784
     H      1.40180000     -3.84800000     -3.01410000    0.0335   30.2006
