14
chgs=0 nmr=1 alpha=55.11 b3lypd3vdz=-212.426023355104 
     C      5.96040000     -2.19040000     -2.23880000   -0.0029   58.0609
     N      6.20610000     -3.26820000     -1.40250000   -0.0731  201.4365
     C      3.96600000      0.65520000     -1.66450000   -0.0088  168.9269
     C      5.43980000      0.31980000     -1.99600000    0.0377  166.3888
     C      5.83470000     -1.03550000     -1.49250000   -0.0655   83.5893
     H      5.91250000     -2.32370000     -3.31810000   -0.0090   25.1339
     H      6.40150000     -4.21130000     -1.70730000    0.0815   29.3654
     H      3.89510000      0.83610000     -0.58100000    0.0089   30.4030
     H      5.58910000      0.39330000     -3.08410000   -0.0046   29.5649
     H      6.04570000      1.11050000     -1.53420000    0.0014   29.5854
     H      6.24290000     -2.94790000     -0.45590000    0.0725   27.9494
     H      3.33350000     -0.20980000     -1.91290000    0.0159   30.6285
     H      3.68100000      1.60630000     -2.13800000    0.0036   30.1687
     H      5.98240000     -1.32830000     -0.44250000   -0.0576   26.3008
