15
chgs=0 nmr=1 alpha=49.06 b3lypd3vdz=-324.787356345905 
     N      5.62010000      4.82020000     -0.78950000   -0.2079  243.5641
     C      5.13490000      4.75780000      0.58520000    0.0266  159.8383
     C      1.75110000      3.61130000     -2.68940000   -0.0057  171.3406
     C      1.57950000      4.49420000     -1.45790000    0.1137   25.8573
     O      0.32590000      4.42390000     -0.96490000   -0.1722  137.1790
     O      2.47210000      5.11220000     -0.91980000   -0.2295  -77.6970
     H      6.12690000      3.95360000     -0.98840000    0.0581   32.0717
     H      4.80970000      4.78470000     -1.41320000    0.0640   30.6041
     H      5.99190000      4.83530000      1.27870000    0.0086   29.1435
     H      4.47090000      5.61460000      0.77610000    0.0308   28.7696
     H      4.62640000      3.81080000      0.81860000   -0.0170   29.0698
     H      2.50890000      4.05600000     -3.34560000    0.0522   29.7650
     H      0.79420000      3.49920000     -3.21900000    0.0481   29.4488
     H      0.33700000      4.72390000     -0.02600000    0.1644   26.0460
     H      2.12030000      2.62820000     -2.36210000    0.0657   29.3803
