15
chgs=0 nmr=1 alpha=52.07 b3lypd3vdz=-233.493476470416 
     C     -3.54840000     -0.67920000      4.55730000   -0.0681  180.3914
     C     -3.88230000      0.82070000      4.57630000   -0.0619  181.1517
     C      0.45840000     -1.45210000      3.78880000   -0.0704   91.4645
     C      1.01760000     -2.42980000      2.95410000    0.0339   36.1906
     O      0.45780000     -3.67340000      2.95140000   -0.1757  214.1737
     H     -4.39500000     -1.32650000      4.82530000    0.0182   30.3642
     H     -2.72210000     -0.89730000      5.25360000    0.0284   30.2409
     H     -4.86980000      0.99170000      4.11760000    0.0179   30.3238
     H     -3.89940000      1.24920000      5.58850000    0.0189   30.3962
     H     -3.20230000     -0.85540000      3.52810000    0.0256   30.0111
     H     -3.09900000      1.26760000      3.94650000    0.0223   30.0957
     H     -0.38490000     -1.72720000      4.42550000    0.0251   26.2843
     H      0.82970000     -4.18290000      2.20160000    0.1580   28.4173
     H      0.87270000     -0.43320000      3.79930000    0.0180   26.6918
     H      1.88690000     -2.17120000      2.33170000    0.0096   24.0619
