11
chgs=0 nmr=1 alpha=35.0 b3lypd3vdz=-210.23363004271 
     N      0.09590000      1.69900000      1.09290000   -0.2569  261.1668
     C     -1.35040000      1.82310000      1.05140000    0.0645  161.6036
     C      1.94450000     -0.78610000     -1.39400000    0.1903   -7.1273
     O      1.25770000      0.07870000     -0.82990000   -0.1935 -454.1694
     H      0.50170000      0.84260000      0.71010000    0.0744   28.7931
     H     -1.61820000      2.64140000      1.72800000    0.0098   28.8304
     H      0.69480000      2.44590000      1.38170000    0.0601   31.8638
     H     -1.75410000      0.85570000      1.38500000    0.0091   28.3429
     H     -1.73350000      2.04110000      0.04360000   -0.0046   28.3109
     H      1.63630000     -1.84080000     -1.44490000    0.0227   21.3514
     H      2.90130000     -0.55550000     -1.88520000    0.0241   21.3376
