13
chgs=0 nmr=1 alpha=48.28 b3lypd3vdz=-232.286558400082 
     C      2.64120000     -0.80650000      2.18810000   -0.0659   60.2199
     C      2.12680000     -2.09980000      2.16000000   -0.0548   58.7993
     C      3.96600000      0.65520000     -1.66450000   -0.0575  157.9389
     C      3.56570000      1.99100000     -2.32950000    0.1241   -3.9143
     O      4.40780000      2.72380000     -2.83520000   -0.2011 -372.8744
     H      3.50920000     -0.57500000      1.56880000    0.0318   25.3564
     H      2.57640000     -2.86320000      1.52270000    0.0279   25.2087
     H      2.20230000     -0.02440000      2.82510000    0.0305   25.1068
     H      1.25750000     -2.35840000      2.78240000    0.0314   25.1651
     H      3.89510000      0.83610000     -0.58100000    0.0556   29.6734
     H      3.33350000     -0.20980000     -1.91290000    0.0412   29.1316
     H      5.01370000      0.41680000     -1.90020000    0.0420   29.4538
     H      2.49780000      2.24810000     -2.27050000   -0.0050   21.3463
