9
chgs=0 nmr=1 alpha=31.35 b3lypd3vdz=-209.114672203074 
     C      5.13490000      4.75780000      0.58520000    0.0029  170.3211
     C      4.42820000      3.44170000      0.90960000    0.0378   28.6674
     O      4.96590000      2.35460000      0.66000000   -0.2813  -84.4938
     N      3.18890000      3.51260000      1.46050000   -0.0625  165.0331
     H      5.99190000      4.83530000      1.27870000    0.0597   29.4015
     H      4.47090000      5.61460000      0.77610000    0.0024   30.2342
     H      2.70330000      4.40390000      1.49810000    0.0888   27.2740
     H      5.50070000      4.80480000     -0.45110000    0.0569   29.5162
     H      2.62700000      2.69190000      1.56460000    0.0952   27.8913
