6
chgs=0 nmr=1 alpha=22.42 b3lypd3vdz=-78.531863134517 
     C      2.08100000      0.19180000      3.00120000   -0.0610   57.6757
     C      0.98480000     -0.15760000      3.80220000   -0.0593   57.7593
     H      0.53070000      0.59650000      4.45220000    0.0284   25.2377
     H      2.49250000      1.21150000      2.97110000    0.0316   24.9721
     H      2.51990000     -0.59030000      2.36420000    0.0294   25.1668
     H      0.57050000     -1.17650000      3.79170000    0.0309   25.0191
