11
chgs=0 nmr=1 alpha=35.6 b3lypd3vdz=-210.237466626683 
     C     -4.17810000     -1.39590000      2.16520000    0.1885   -5.2288
     O     -4.36040000     -2.59610000      1.96420000   -0.2052 -451.5296
     C     -1.36200000     -4.02470000      0.28750000    0.0592  164.3509
     N     -2.40610000     -3.22870000     -0.31420000   -0.2397  258.3527
     H     -3.38120000     -1.05990000      2.84500000    0.0217   21.2707
     H     -4.78910000     -0.61280000      1.69260000    0.0225   21.2559
     H     -1.46800000     -3.96920000      1.37910000    0.0173   29.2108
     H     -1.43760000     -5.08370000     -0.00650000    0.0003   28.7252
     H     -3.05840000     -2.77050000      0.31520000    0.0703   32.0858
     H     -0.32890000     -3.74340000      0.03530000   -0.0032   29.0744
     H     -2.51000000     -3.12050000     -1.30290000    0.0685   32.2924
