7
chgs=0 nmr=1 alpha=26.58 b3lypd3vdz=-153.727834249442 
     C      0.45840000     -1.45210000      3.78880000   -0.0626   91.5941
     C      1.01760000     -2.42980000      2.95410000    0.0339   36.3041
     O      0.45780000     -3.67340000      2.95140000   -0.1768  214.5562
     H     -0.38490000     -1.72720000      4.42550000    0.0182   26.3433
     H      0.82970000     -4.18290000      2.20160000    0.1580   28.4118
     H      0.87270000     -0.43320000      3.79930000    0.0195   26.7157
     H      1.88690000     -2.17120000      2.33170000    0.0097   24.0575
