16
chgs=0 nmr=1 alpha=67.83 b3lypd3vdz=-234.406044440731 
     C      2.64120000     -0.80650000      2.18810000   -0.0631   58.1642
     C      2.12680000     -2.09980000      2.16000000   -0.0568   60.2700
     C      6.02880000     -1.42020000     -0.11300000   -0.0132   68.7727
     C      6.04520000     -0.70090000      1.09900000   -0.0106   58.5617
     C      6.26560000     -1.40060000      2.28170000   -0.0145   52.7802
     C      6.47310000     -2.79860000      2.28190000   -0.0001   68.0093
     H      3.50920000     -0.57500000      1.56880000    0.0358   25.0300
     H      2.57640000     -2.86320000      1.52270000    0.0253   25.3278
     H      2.20230000     -0.02440000      2.82510000    0.0214   25.2304
     H      1.25750000     -2.35840000      2.78240000    0.0241   25.2967
     H      5.87840000      0.37770000      1.10230000   -0.0121   24.9575
     H      6.27140000     -0.86200000      3.23210000   -0.0152   24.9193
     H      6.63660000     -3.31610000      3.23010000    0.0191   26.0238
     H      5.88110000     -1.12740000     -1.16300000    0.0191   25.6476
     H      6.20500000     -2.50590000     -0.09900000    0.0159   23.8623
     H      6.47580000     -3.37700000      1.34620000    0.0249   23.6436
