18
chgs=0 nmr=1 alpha=71.12 b3lypd3vdz=-235.641387512154 
     C     -3.06370000     -0.92600000      3.11590000   -0.0626  181.4758
     C     -3.54840000     -0.67920000      4.55730000   -0.0644  182.8103
     C      2.64120000     -0.80650000      2.18810000    0.0058   73.0235
     C      2.12680000     -2.09980000      2.16000000   -0.0175   56.0622
     C      0.45840000     -1.45210000      3.78880000    0.0036   67.8862
     C      1.01760000     -2.42980000      2.95410000   -0.0343   52.9355
     H     -2.29450000     -1.70630000      3.05990000    0.0187   30.3080
     H     -4.39500000     -1.32650000      4.82530000    0.0215   30.3708
     H     -2.72210000     -0.89730000      5.25360000    0.0195   30.2523
     H     -2.64250000      0.04720000      2.82370000    0.0199   30.2173
     H     -3.86060000     -1.26200000      2.43610000    0.0156   30.4270
     H     -3.78740000      0.39440000      4.57090000    0.0231   30.0214
     H      3.50920000     -0.57500000      1.56880000    0.0158   26.2185
     H      2.57640000     -2.86320000      1.52270000   -0.0190   25.0589
     H     -0.38490000     -1.72720000      4.42550000    0.0265   25.8609
     H      2.20230000     -0.02440000      2.82510000    0.0234   23.7396
     H      0.87270000     -0.43320000      3.79930000    0.0209   23.4714
     H      0.56610000     -3.43290000      2.95190000   -0.0166   24.8333
