10
chgs=0 nmr=1 alpha=35.74 b3lypd3vdz=-193.039996297034 
     C     -1.35040000      1.82310000      1.05140000   -0.0421  154.0214
     C     -1.91270000      0.47570000      1.51600000    0.1512  -16.6926
     O     -1.83470000     -0.51030000      0.76680000   -0.2187 -394.9392
     C     -1.88600000      2.12790000     -0.35750000   -0.0215  178.7207
     H     -1.61820000      2.64140000      1.72800000    0.0100   29.1626
     H     -1.37820000      3.00360000     -0.78400000    0.0167   30.5116
     H     -1.69840000      1.28000000     -1.04010000    0.0422   29.5805
     H     -0.25490000      1.72910000      1.08280000    0.0454   29.6309
     H     -2.39240000      0.39280000      2.50240000   -0.0087   20.7954
     H     -2.96960000      2.31430000     -0.32560000    0.0255   30.6253
