15
chgs=0 nmr=1 alpha=57.14 b3lypd3vdz=-287.629602136544 
     C      6.02880000     -1.42020000     -0.11300000   -0.0465   53.4420
     C      5.43980000      0.31980000     -1.99600000    0.0421  175.2183
     C      5.83470000     -1.03550000     -1.49250000   -0.1328   35.2911
     C      4.42820000      3.44170000      0.90960000    0.1727   36.6787
     O      4.96590000      2.35460000      0.66000000   -0.2759 -105.8537
     N      3.18890000      3.51260000      1.46050000   -0.0716  163.0195
     H      5.58910000      0.39330000     -3.08410000    0.0112   30.0787
     H      6.04570000      1.11050000     -1.53420000    0.0473   28.8215
     H      6.20500000     -2.50590000     -0.09900000    0.0063   25.6189
     H      6.04160000     -0.85880000      0.83290000    0.0227   24.6090
     H      4.39210000      0.55820000     -1.76030000    0.0382   29.4488
     H      5.93480000     -1.95560000     -2.08700000   -0.0102   24.3782
     H      2.70330000      4.40390000      1.49810000    0.0963   27.4043
     H      4.93670000      4.38870000      0.67620000   -0.0005   23.1710
     H      2.62700000      2.69190000      1.56460000    0.1008   27.4125
