14
b3lypd3vdz=-249.52975741063 
     C     -1.91270000      0.47570000      1.51600000
     O     -1.83470000     -0.51030000      0.76680000
     N      0.29000000     -2.47520000     -0.72790000
     C      1.51630000     -2.25140000     -1.46470000
     C      1.36760000     -2.75080000     -2.94330000
     H     -1.50900000      1.44310000      1.18240000
     H     -2.39240000      0.39280000      2.50240000
     H     -0.46940000     -1.80640000     -0.84560000
     H      2.30700000     -2.84320000     -0.97730000
     H      2.19480000     -2.32230000     -3.53340000
     H      0.13210000     -3.33170000     -0.23650000
     H      1.82450000     -1.19670000     -1.41380000
     H      0.44400000     -2.35480000     -3.39070000
     H      1.40180000     -3.84800000     -3.01410000
