13
chgs=0 nmr=1 alpha=41.83 b3lypd3vdz=-269.400365354683 
     C     -1.91270000      0.47570000      1.51600000    0.1734   -5.0632
     O     -1.83470000     -0.51030000      0.76680000   -0.2015 -509.3458
     C     -2.83870000     -1.09330000     -3.13790000    0.1013  133.0078
     O     -1.71160000     -0.46870000     -2.50910000   -0.2791  301.0798
     C     -3.77040000     -0.02030000     -3.68410000   -0.0224  171.9510
     H     -1.50900000      1.44310000      1.18240000    0.0164   21.2019
     H     -2.39240000      0.39280000      2.50240000    0.0123   21.1470
     H     -2.49380000     -1.73900000     -3.96220000   -0.0042   27.8031
     H     -0.90150000     -0.86780000     -2.89010000    0.1423   30.7665
     H     -3.25600000      0.55400000     -4.46900000    0.0150   30.2465
     H     -4.68470000     -0.46680000     -4.10730000    0.0075   30.5613
     H     -4.05240000      0.68150000     -2.88650000    0.0267   30.2539
     H     -3.34220000     -1.75290000     -2.41580000    0.0124   27.5997
