15
chgs=0 nmr=1 alpha=58.97 b3lypd3vdz=-196.351933438596 
     C      6.02880000     -1.42020000     -0.11300000   -0.0776   56.7895
     C      6.04520000     -0.70090000      1.09900000   -0.0412   60.0675
     C      2.64600000      1.59200000      2.95990000    0.0134  174.9157
     C      2.08100000      0.19180000      3.00120000   -0.1258   47.2581
     C      2.64120000     -0.80650000      2.18810000   -0.0219   57.9792
     H      5.87840000      0.37770000      1.10230000    0.0392   25.0326
     H      5.88110000     -1.12740000     -1.16300000    0.0307   24.8551
     H      6.20500000     -2.50590000     -0.09900000    0.0265   25.4743
     H      6.21940000     -1.25390000      2.03380000    0.0407   24.7671
     H      3.74190000      1.55800000      3.06080000    0.0348   29.3181
     H      2.25480000      2.20950000      3.78430000    0.0214   29.9601
     H      3.50920000     -0.57500000      1.56880000    0.0143   25.0449
     H      2.45380000      2.10780000      2.00750000    0.0408   29.3641
     H      1.22090000     -0.08240000      3.62970000   -0.0079   24.7391
     H      2.23470000     -1.82840000      2.16590000    0.0126   25.4952
