7
chgs=0 nmr=1 alpha=19.37 b3lypd3vdz=-95.781553960784 
     N     -2.50100000      0.37410000      2.72560000   -0.2504  268.7401
     C     -2.78870000      1.44460000      3.69700000    0.0573  160.0323
     H     -1.88090000      1.68360000      4.27730000    0.0137   28.1683
     H     -3.13200000      2.35020000      3.17990000    0.0176   28.5367
     H     -2.06490000      0.44940000      1.82890000    0.0710   32.0796
     H     -2.88390000     -0.51070000      2.99120000    0.0680   32.2476
     H     -3.57200000      0.99770000      4.32680000    0.0228   28.6840
