18
chgs=0 nmr=1 alpha=69.51 b3lypd3vdz=-326.918737244741 
     C      6.02880000     -1.42020000     -0.11300000   -0.0413   55.0863
     C      3.96600000      0.65520000     -1.66450000   -0.0183  168.9997
     C      5.43980000      0.31980000     -1.99600000    0.0323  165.4821
     C      5.83470000     -1.03550000     -1.49250000   -0.0962   28.1334
     C      4.42820000      3.44170000      0.90960000    0.1792   36.5939
     O      4.96590000      2.35460000      0.66000000   -0.2699 -102.6535
     N      3.18890000      3.51260000      1.46050000   -0.0701  162.3725
     H      3.89510000      0.83610000     -0.58100000    0.0346   29.2816
     H      5.58910000      0.39330000     -3.08410000   -0.0010   29.7349
     H      6.04570000      1.11050000     -1.53420000    0.0260   28.6032
     H      6.20500000     -2.50590000     -0.09900000    0.0073   25.6468
     H      6.04160000     -0.85880000      0.83290000    0.0231   24.6793
     H      3.33350000     -0.20980000     -1.91290000    0.0043   30.6161
     H      3.68100000      1.60630000     -2.13800000   -0.0041   30.7593
     H      5.93480000     -1.95560000     -2.08700000   -0.0142   24.0537
     H      2.70330000      4.40390000      1.49810000    0.0975   27.3491
     H      4.93670000      4.38870000      0.67620000    0.0067   23.1544
     H      2.62700000      2.69190000      1.56460000    0.1044   27.3001
