17
chgs=0 nmr=1 alpha=55.97 b3lypd3vdz=-383.848776383895 
     C     -1.91270000      0.47570000      1.51600000    0.1744   -4.9348
     O     -1.83470000     -0.51030000      0.76680000   -0.2008 -511.6020
     C      1.94450000     -0.78610000     -1.39400000    0.1716   -3.8622
     O      1.25770000      0.07870000     -0.82990000   -0.1938 -496.5185
     C     -2.83870000     -1.09330000     -3.13790000    0.0993  133.0844
     O     -1.71160000     -0.46870000     -2.50910000   -0.2718  297.9831
     C     -3.77040000     -0.02030000     -3.68410000   -0.0220  171.9937
     H     -1.50900000      1.44310000      1.18240000    0.0192   21.0003
     H     -2.39240000      0.39280000      2.50240000    0.0065   21.0555
     H      1.63630000     -1.84080000     -1.44490000    0.0147   21.3291
     H      2.90130000     -0.55550000     -1.88520000    0.0125   21.3142
     H     -2.49380000     -1.73900000     -3.96220000   -0.0079   27.9032
     H     -0.90150000     -0.86780000     -2.89010000    0.1372   31.2303
     H     -3.25600000      0.55400000     -4.46900000    0.0143   30.3142
     H     -4.68470000     -0.46680000     -4.10730000    0.0061   30.6078
     H     -4.05240000      0.68150000     -2.88650000    0.0287   30.2519
     H     -3.34220000     -1.75290000     -2.41580000    0.0118   27.6252
