11
chgs=0 nmr=1 alpha=34.32 b3lypd3vdz=-210.234261863762 
     C     -1.91270000      0.47570000      1.51600000    0.1716   -6.5224
     O     -1.83470000     -0.51030000      0.76680000   -0.1959 -501.8563
     C     -1.36200000     -4.02470000      0.28750000    0.0635  163.0641
     N     -2.40610000     -3.22870000     -0.31420000   -0.2219  262.0085
     H     -1.50900000      1.44310000      1.18240000    0.0175   21.2226
     H     -2.39240000      0.39280000      2.50240000    0.0169   21.1904
     H     -1.46800000     -3.96920000      1.37910000    0.0127   29.0988
     H     -1.43760000     -5.08370000     -0.00650000   -0.0060   28.5716
     H     -3.05840000     -2.77050000      0.31520000    0.0739   30.9909
     H     -0.32890000     -3.74340000      0.03530000    0.0000   28.7487
     H     -2.51000000     -3.12050000     -1.30290000    0.0677   31.9840
