11
chgs=0 nmr=1 alpha=38.61 b3lypd3vdz=-359.509997454645 
     C     -4.17810000     -1.39590000      2.16520000    0.1554   38.7717
     O     -4.36040000     -2.59610000      1.96420000   -0.2846  -99.5381
     N     -4.93360000     -0.42760000      1.58080000   -0.0876  158.5351
     C     -3.36750000      2.38270000     -0.31390000    0.2469   32.9157
     O     -4.04740000      2.27800000      0.70320000   -0.2720  -90.5794
     O     -3.88670000      2.72240000     -1.49350000   -0.1479  122.5319
     H     -4.60560000      0.53540000      1.61300000    0.1016   26.3670
     H     -3.38120000     -1.05990000      2.84500000   -0.0145   23.3754
     H     -5.63580000     -0.64980000      0.90440000    0.0854   27.8662
     H     -4.86380000      2.83350000     -1.40270000    0.1718   25.0757
     H     -2.28390000      2.19630000     -0.34580000    0.0456   23.5549
