10
chgs=0 nmr=1 alpha=44.92 b3lypd3vdz=-155.865224783878 
     C      6.02880000     -1.42020000     -0.11300000   -0.0039   60.9142
     C      6.25690000     -2.82580000     -0.09490000   -0.0414   42.0893
     C      6.47650000     -3.53090000      1.09720000   -0.0036   58.0667
     C      6.47310000     -2.79860000      2.28190000    0.0058   72.3527
     H      6.64460000     -4.61050000      1.09690000   -0.0153   24.9334
     H      6.63660000     -3.31610000      3.23010000    0.0177   26.1504
     H      5.88110000     -1.12740000     -1.16300000    0.0172   25.1167
     H      6.04160000     -0.85880000      0.83290000    0.0189   22.8391
     H      6.21640000     -3.17810000     -1.13620000   -0.0200   24.3443
     H      6.31160000     -1.71050000      2.28170000    0.0246   23.4776
