16
b3lypd3vdz=-362.858424617919 
     N     -4.14050000     -1.27530000     -1.02540000
     C     -5.44150000     -1.47950000     -0.66470000
     O     -6.22450000     -2.15670000     -1.31890000
     C     -3.54700000     -2.02120000     -2.12210000
     C     -1.35040000      1.82310000      1.05140000
     C     -1.91270000      0.47570000      1.51600000
     O     -1.83470000     -0.51030000      0.76680000
     H     -3.49920000     -0.77170000     -0.41380000
     H     -4.37040000     -2.54620000     -2.62940000
     H     -5.81100000     -0.96070000      0.23210000
     H     -2.83000000     -2.78180000     -1.77940000
     H     -3.04350000     -1.36160000     -2.84420000
     H     -1.61820000      2.64140000      1.72800000
     H     -0.25490000      1.72910000      1.08280000
     H     -1.73350000      2.04110000      0.04360000
     H     -2.39240000      0.39280000      2.50240000
