9
chgs=0 nmr=1 alpha=28.17 b3lypd3vdz=-154.951610664611 
     O      0.17140000     -2.23790000     -3.52280000   -0.2854  282.9983
     C      1.51630000     -2.25140000     -1.46470000   -0.0379  169.0692
     C      1.36760000     -2.75080000     -2.94330000    0.1036  130.0047
     H     -0.55590000     -2.85860000     -3.27480000    0.1436   31.2845
     H      2.30700000     -2.84320000     -0.97730000    0.0059   30.5077
     H      2.19480000     -2.32230000     -3.53340000    0.0229   27.5818
     H      0.58470000     -2.42140000     -0.90500000    0.0122   30.5585
     H      1.82450000     -1.19670000     -1.41380000    0.0308   29.8385
     H      1.40180000     -3.84800000     -3.01410000    0.0043   27.7150
