16
chgs=0 nmr=1 alpha=58.64 b3lypd3vdz=-362.854550183594 
     C     -2.54580000     -3.08320000     -1.64360000    0.1569   38.7984
     O     -1.85310000     -3.71080000     -2.46200000   -0.2943 -102.1998
     N     -2.40610000     -3.22870000     -0.31420000   -0.0675  159.8659
     C     -3.06370000     -0.92600000      3.11590000   -0.0354  149.2926
     C     -4.17810000     -1.39590000      2.16520000    0.1555  -18.6616
     O     -4.36040000     -2.59610000      1.96420000   -0.2195 -359.6336
     C     -3.54840000     -0.67920000      4.55730000   -0.0317  180.9698
     H     -3.05840000     -2.77050000      0.31520000    0.0954   27.5660
     H     -3.26280000     -2.32260000     -1.98630000   -0.0169   23.4889
     H     -1.68320000     -3.77990000      0.10240000    0.0919   27.6371
     H     -2.29450000     -1.70630000      3.05990000    0.0248   29.3749
     H     -4.39500000     -1.32650000      4.82530000    0.0372   30.4243
     H     -2.72210000     -0.89730000      5.25360000    0.0410   29.8236
     H     -2.64250000      0.04720000      2.82370000    0.0232   28.5402
     H     -4.78910000     -0.61280000      1.69260000    0.0035   20.7854
     H     -3.78740000      0.39440000      4.57090000    0.0359   29.6800
