15
chgs=0 nmr=1 alpha=53.83 b3lypd3vdz=-287.647324924358 
     N     -4.14050000     -1.27530000     -1.02540000   -0.1844  251.6646
     C     -3.54700000     -2.02120000     -2.12210000   -0.0399  125.6885
     C     -2.54580000     -3.08320000     -1.64360000    0.2077  -26.2768
     O     -1.85310000     -3.71080000     -2.46200000   -0.2200 -388.8902
     C     -2.83870000     -1.09330000     -3.13790000    0.0159  159.2699
     C     -3.77040000     -0.02030000     -3.68410000    0.0084  177.3171
     H     -3.49920000     -0.77170000     -0.41380000    0.0836   30.9442
     H     -4.37040000     -2.54620000     -2.62940000    0.0256   28.7784
     H     -2.49380000     -1.73900000     -3.96220000    0.0212   29.3126
     H     -3.25600000      0.55400000     -4.46900000    0.0119   30.3992
     H     -4.68470000     -0.46680000     -4.10730000    0.0088   30.7736
     H     -4.05240000      0.68150000     -2.88650000    0.0121   29.8541
     H     -5.09330000     -1.42480000     -0.76120000    0.0833   30.5531
     H     -2.43150000     -3.20220000     -0.55600000   -0.0296   20.8701
     H     -1.97400000     -0.61410000     -2.65550000   -0.0045   30.6025
