19
chgs=0 nmr=1 alpha=60.32 b3lypd3vdz=-385.07228551603 
     C     -1.91270000      0.47570000      1.51600000    0.1734   -4.9889
     O     -1.83470000     -0.51030000      0.76680000   -0.2012 -510.4121
     O      0.17140000     -2.23790000     -3.52280000   -0.2926  316.6222
     C      1.36760000     -2.75080000     -2.94330000    0.0972  141.6688
     C     -2.83870000     -1.09330000     -3.13790000    0.0908  135.0799
     O     -1.71160000     -0.46870000     -2.50910000   -0.3030  303.3369
     C     -3.77040000     -0.02030000     -3.68410000   -0.0135  171.6028
     H     -1.50900000      1.44310000      1.18240000    0.0174   21.1934
     H     -2.39240000      0.39280000      2.50240000    0.0109   21.1395
     H     -0.55590000     -2.85860000     -3.27480000    0.1684   31.0907
     H      2.19480000     -2.32230000     -3.53340000    0.0368   27.7674
     H      1.47190000     -2.40040000     -1.90580000    0.0313   27.5521
     H      1.40180000     -3.84800000     -3.01410000    0.0237   27.7883
     H     -2.49380000     -1.73900000     -3.96220000   -0.0133   28.2947
     H     -0.90150000     -0.86780000     -2.89010000    0.1342   27.8978
     H     -3.25600000      0.55400000     -4.46900000    0.0162   30.3566
     H     -4.68470000     -0.46680000     -4.10730000   -0.0000   30.6751
     H     -4.05240000      0.68150000     -2.88650000    0.0233   30.3397
     H     -3.34220000     -1.75290000     -2.41580000    0.0002   27.9959
