7
chgs=0 nmr=1 alpha=24.9 b3lypd3vdz=-153.749933363167 
     C     -5.95950000     -0.75220000      0.59260000   -0.0481  160.8325
     C     -5.44150000     -1.47950000     -0.66470000    0.1195   -5.7211
     O     -6.22450000     -2.15670000     -1.31890000   -0.2035 -386.5564
     H     -6.64650000     -1.48990000      1.03030000    0.0514   29.5475
     H     -5.18710000     -0.50780000      1.33670000    0.0252   29.4003
     H     -6.50330000      0.16910000      0.33670000    0.0598   29.4226
     H     -4.39340000     -1.31500000     -0.95530000   -0.0044   21.1009
