19
chgs=0 nmr=1 alpha=79.87 b3lypd3vdz=-273.709040135181 
     C      6.04520000     -0.70090000      1.09900000   -0.0609   59.2293
     C      6.26560000     -1.40060000      2.28170000   -0.0471   56.1894
     C      2.64600000      1.59200000      2.95990000    0.0451  170.3723
     C      2.08100000      0.19180000      3.00120000   -0.1736   45.4179
     C      2.64120000     -0.80650000      2.18810000    0.0077   48.8958
     C      0.98480000     -0.15760000      3.80220000    0.0152   75.4976
     C      2.12680000     -2.09980000      2.16000000    0.0042   72.9060
     H      5.87840000      0.37770000      1.10230000    0.0333   25.1741
     H      6.27140000     -0.86200000      3.23210000    0.0306   25.2533
     H      6.03240000     -1.26230000      0.15310000    0.0317   25.1258
     H      6.42710000     -2.48870000      2.28190000    0.0326   24.9860
     H      3.74190000      1.55800000      3.06080000    0.0277   29.8715
     H      2.25480000      2.20950000      3.78430000    0.0193   29.6012
     H      3.50920000     -0.57500000      1.56880000   -0.0439   24.8300
     H      0.53070000      0.59650000      4.45220000   -0.0018   26.4313
     H      2.57640000     -2.86320000      1.52270000    0.0109   26.2847
     H      2.45380000      2.10780000      2.00750000    0.0383   29.6840
     H      0.57050000     -1.17650000      3.79170000    0.0150   24.1512
     H      1.25750000     -2.35840000      2.78240000    0.0156   24.2483
