4
chgs=0 nmr=1 alpha=13.34 b3lypd3vdz=-114.448924880098 
     C     -3.36750000      2.38270000     -0.31390000    0.1788   -0.5004
     O     -4.04740000      2.27800000      0.70320000   -0.1985 -453.4246
     H     -2.28390000      2.19630000     -0.34580000    0.0104   21.4277
     H     -3.79600000      2.66310000     -1.28740000    0.0094   21.4789
