10
chgs=0 nmr=1 alpha=51.37 b3lypd3vdz=-155.879686377768 
     C      6.02880000     -1.42020000     -0.11300000   -0.0333   34.9745
     C      6.04520000     -0.70090000      1.09900000   -0.0027   54.2300
     C      6.26560000     -1.40060000      2.28170000    0.0079   63.7318
     C      5.83470000     -1.03550000     -1.49250000   -0.0245   62.0355
     H      5.87840000      0.37770000      1.10230000   -0.0182   24.4558
     H      6.27140000     -0.86200000      3.23210000    0.0194   25.9513
     H      6.20500000     -2.50590000     -0.09900000   -0.0175   24.3182
     H      6.42710000     -2.48870000      2.28190000    0.0235   25.5480
     H      5.54490000     -0.04080000     -1.86200000    0.0198   25.0700
     H      5.93480000     -1.95560000     -2.08700000    0.0258   25.5489
