18
chgs=0 nmr=1 alpha=66.58 b3lypd3vdz=-326.975327530211 
     C     -5.95950000     -0.75220000      0.59260000    0.1253  148.5639
     C     -6.72760000      0.54920000      0.23110000   -0.0764  162.7753
     C     -7.17340000      0.66390000     -1.24020000   -0.0222  176.3682
     C     -3.06370000     -0.92600000      3.11590000   -0.0021  168.7759
     C     -4.17810000     -1.39590000      2.16520000    0.0846   29.9992
     O     -4.36040000     -2.59610000      1.96420000   -0.2838  -95.4157
     N     -4.93360000     -0.42760000      1.58080000   -0.1599  134.6775
     H     -6.64650000     -1.48990000      1.03030000    0.0309   28.0347
     H     -7.60780000      0.64120000      0.88650000    0.0223   29.3510
     H     -6.07680000      1.40620000      0.44970000    0.0007   30.7644
     H     -6.30940000      0.50900000     -1.90500000    0.0236   30.4529
     H     -7.93760000     -0.07880000     -1.49670000    0.0276   30.4475
     H     -2.29450000     -1.70630000      3.05990000    0.0482   29.7371
     H     -4.60560000      0.53540000      1.61300000    0.0847   27.7701
     H     -5.59000000     -1.27100000     -0.30420000    0.0175   28.8399
     H     -7.57180000      1.66990000     -1.43800000    0.0190   30.3072
     H     -2.64250000      0.04720000      2.82370000    0.0098   30.1857
     H     -3.40980000     -0.74980000      4.14510000    0.0502   29.3775
