17
chgs=0 nmr=1 alpha=72.64 b3lypd3vdz=-309.625013023351 
     C      6.02880000     -1.42020000     -0.11300000   -0.0254   69.6631
     C      6.04520000     -0.70090000      1.09900000    0.0063   57.3900
     C      6.26560000     -1.40060000      2.28170000   -0.0266   52.3531
     C      6.47310000     -2.79860000      2.28190000   -0.0062   70.9743
     C      5.13490000      4.75780000      0.58520000   -0.0414  163.0541
     C      4.42820000      3.44170000      0.90960000    0.1269  -12.6741
     O      4.96590000      2.35460000      0.66000000   -0.1989 -393.7205
     H      5.87840000      0.37770000      1.10230000   -0.0157   23.5721
     H      6.27140000     -0.86200000      3.23210000   -0.0256   24.9131
     H      6.63660000     -3.31610000      3.23010000    0.0106   26.1986
     H      5.88110000     -1.12740000     -1.16300000    0.0117   25.6401
     H      6.20500000     -2.50590000     -0.09900000    0.0067   24.0957
     H      6.47580000     -3.37700000      1.34620000    0.0218   23.7805
     H      5.99190000      4.83530000      1.27870000    0.0636   29.4913
     H      4.47090000      5.61460000      0.77610000    0.0257   29.2615
     H      5.50070000      4.80480000     -0.45110000    0.0625   29.3265
     H      3.42440000      3.49910000      1.35580000    0.0042   20.9981
