15
chgs=0 nmr=1 alpha=53.47 b3lypd3vdz=-287.647922642365 
     C      2.64120000     -0.80650000      2.18810000   -0.0319   57.0940
     C      2.12680000     -2.09980000      2.16000000   -0.0658   62.9072
     N      3.11920000     -0.50300000     -1.99710000   -0.0528  174.7487
     C      1.51630000     -2.25140000     -1.46470000   -0.0114  167.5581
     C      1.94450000     -0.78610000     -1.39400000    0.0449   28.0474
     O      1.25770000      0.07870000     -0.82990000   -0.2715 -114.4912
     H      3.50920000     -0.57500000      1.56880000    0.0157   25.4908
     H      2.57640000     -2.86320000      1.52270000    0.0194   25.4235
     H      2.20230000     -0.02440000      2.82510000    0.0333   25.1068
     H      1.25750000     -2.35840000      2.78240000    0.0285   25.3892
     H      3.66780000     -1.30950000     -2.29190000    0.0811   27.8865
     H      2.30700000     -2.84320000     -0.97730000    0.0300   29.7458
     H      3.69420000      0.28340000     -1.77130000    0.0923   27.9783
     H      0.58470000     -2.42140000     -0.90500000    0.0475   29.8635
     H      1.41200000     -2.60180000     -2.50220000    0.0409   29.4669
