14
chgs=0 nmr=1 alpha=55.84 b3lypd3vdz=-361.668718215899 
     C      2.37390000      2.32220000      1.61150000    0.0044  168.5372
     C      0.90310000      2.70560000      1.48210000    0.0803   28.7258
     O      0.49730000      3.84920000      1.74780000   -0.2883  -83.7524
     N      0.09590000      1.69900000      1.09290000   -0.1497  154.4670
     C     -1.35040000      1.82310000      1.05140000    0.1365  145.3110
     C     -1.91270000      0.47570000      1.51600000    0.1216  -13.1375
     O     -1.83470000     -0.51030000      0.76680000   -0.2163 -401.3559
     H      2.62670000      1.62560000      0.80080000    0.0205   30.2023
     H      0.50170000      0.84260000      0.71010000    0.0937   27.1399
     H     -1.61820000      2.64140000      1.72800000    0.0410   26.8600
     H      2.99190000      3.22490000      1.49700000    0.0491   29.6487
     H      2.56610000      1.80640000      2.56390000    0.0554   29.3978
     H     -1.73350000      2.04110000      0.04360000    0.0453   28.5508
     H     -2.39240000      0.39280000      2.50240000    0.0066   21.0465
