14
chgs=0 nmr=1 alpha=45.85 b3lypd3vdz=-249.561297113599 
     N     -4.14050000     -1.27530000     -1.02540000   -0.2063  261.1048
     C     -3.54700000     -2.02120000     -2.12210000    0.1174  140.3277
     C     -2.83870000     -1.09330000     -3.13790000    0.0389  119.9711
     O     -1.71160000     -0.46870000     -2.50910000   -0.2792  296.2205
     C     -3.77040000     -0.02030000     -3.68410000    0.0485  171.4578
     H     -3.49920000     -0.77170000     -0.41380000    0.0854   30.7880
     H     -4.37040000     -2.54620000     -2.62940000   -0.0019   29.0880
     H     -2.49380000     -1.73900000     -3.96220000   -0.0290   27.9791
     H     -0.90150000     -0.86780000     -2.89010000    0.1452   30.8651
     H     -3.25600000      0.55400000     -4.46900000    0.0033   30.4000
     H     -4.68470000     -0.46680000     -4.10730000    0.0021   30.7821
     H     -4.05240000      0.68150000     -2.88650000    0.0186   29.2647
     H     -5.09330000     -1.42480000     -0.76120000    0.0738   31.1380
     H     -2.83000000     -2.78180000     -1.77940000   -0.0168   28.2765
