14
chgs=0 nmr=1 alpha=57.64 b3lypd3vdz=-270.387957180785 
     C      2.37390000      2.32220000      1.61150000   -0.0069  146.2976
     C      0.90310000      2.70560000      1.48210000    0.1647  -17.4361
     O      0.49730000      3.84920000      1.74780000   -0.2198 -399.8679
     C      2.64600000      1.59200000      2.95990000    0.0401  155.5107
     C      2.08100000      0.19180000      3.00120000   -0.1016   43.6174
     C      0.98480000     -0.15760000      3.80220000    0.0014   62.6429
     H      2.62670000      1.62560000      0.80080000    0.0123   29.2152
     H      3.74190000      1.55800000      3.06080000    0.0252   28.9514
     H      2.25480000      2.20950000      3.78430000    0.0213   29.0050
     H      0.53070000      0.59650000      4.45220000    0.0217   25.5983
     H      2.99190000      3.22490000      1.49700000    0.0233   29.4168
     H      0.24430000      1.88400000      1.16440000   -0.0030   21.0293
     H      2.51990000     -0.59030000      2.36420000   -0.0050   24.6408
     H      0.57050000     -1.17650000      3.79170000    0.0263   25.5274
