16
chgs=0 nmr=1 alpha=77.64 b3lypd3vdz=-234.446949926625 
     C      6.02880000     -1.42020000     -0.11300000   -0.0135   39.6523
     C      6.25690000     -2.82580000     -0.09490000   -0.0024   30.5758
     C      6.47650000     -3.53090000      1.09720000   -0.0113   78.7293
     C      3.96600000      0.65520000     -1.66450000   -0.0100  170.6724
     C      5.43980000      0.31980000     -1.99600000    0.0302  165.3997
     C      5.83470000     -1.03550000     -1.49250000   -0.0552   24.5262
     H      6.64460000     -4.61050000      1.09690000    0.0166   26.3755
     H      3.89510000      0.83610000     -0.58100000    0.0203   30.3732
     H      5.58910000      0.39330000     -3.08410000    0.0113   29.5610
     H      6.04570000      1.11050000     -1.53420000    0.0190   29.0587
     H      6.04160000     -0.85880000      0.83290000   -0.0178   24.0327
     H      6.21640000     -3.17810000     -1.13620000   -0.0299   23.8400
     H      6.47380000     -2.95250000      2.03290000    0.0107   25.9946
     H      3.33350000     -0.20980000     -1.91290000    0.0243   30.2946
     H      3.68100000      1.60630000     -2.13800000    0.0161   30.1322
     H      5.93480000     -1.95560000     -2.08700000   -0.0082   23.6612
