20
chgs=0 nmr=1 alpha=77.96 b3lypd3vdz=-290.950597454486 
     N     -2.50100000      0.37410000      2.72560000   -0.2080  235.2563
     C     -3.06370000     -0.92600000      3.11590000    0.0518  155.3326
     C     -3.54840000     -0.67920000      4.55730000   -0.0402  168.1218
     C      2.08100000      0.19180000      3.00120000   -0.0092   73.3325
     C      0.98480000     -0.15760000      3.80220000   -0.0121   53.9943
     C      0.45840000     -1.45210000      3.78880000   -0.0160   51.6882
     C      1.01760000     -2.42980000      2.95410000   -0.0059   70.9015
     H     -2.29450000     -1.70630000      3.05990000    0.0019   28.6720
     H     -4.39500000     -1.32650000      4.82530000    0.0175   29.9806
     H     -2.72210000     -0.89730000      5.25360000    0.0258   29.6690
     H     -2.06490000      0.44940000      1.82890000    0.0765   31.4934
     H     -2.69620000      1.10040000      3.38470000    0.0703   32.1640
     H     -3.86060000     -1.26200000      2.43610000   -0.0063   28.7740
     H     -3.78740000      0.39440000      4.57090000    0.0158   31.2050
     H      0.53070000      0.59650000      4.45220000   -0.0265   24.9313
     H     -0.38490000     -1.72720000      4.42550000   -0.0128   24.7592
     H      2.49250000      1.21150000      2.97110000    0.0197   25.9452
     H      2.51990000     -0.59030000      2.36420000    0.0184   23.9204
     H      1.88690000     -2.17120000      2.33170000    0.0220   23.5938
     H      0.56610000     -3.43290000      2.95190000    0.0175   25.8438
