4
chgs=0 nmr=1 alpha=7.82 b3lypd3vdz=-56.504906581802 
     N      6.20610000     -3.26820000     -1.40250000   -0.2526  284.0906
     H      6.40150000     -4.21130000     -1.70730000    0.0986   30.8605
     H      6.02880000     -2.49070000     -2.00580000    0.0770   32.1749
     H      6.24290000     -2.94790000     -0.45590000    0.0770   32.1774
