10
chgs=0 nmr=1 alpha=30.9 b3lypd3vdz=-135.068772132838 
     N     -2.50100000      0.37410000      2.72560000   -0.2270  238.3288
     C     -3.88230000      0.82070000      4.57630000   -0.0349  166.8143
     C     -2.78870000      1.44460000      3.69700000    0.0739  154.1140
     H     -4.86980000      0.99170000      4.11760000    0.0257   29.5930
     H     -3.89940000      1.24920000      5.58850000    0.0119   30.0274
     H     -1.88090000      1.68360000      4.27730000    0.0023   28.2302
     H     -3.13200000      2.35020000      3.17990000    0.0067   28.5510
     H     -2.06490000      0.44940000      1.82890000    0.0646   31.5582
     H     -2.88390000     -0.51070000      2.99120000    0.0599   33.0860
     H     -3.64330000     -0.25290000      4.56270000    0.0168   31.0392
