12
chgs=0 nmr=1 alpha=47.19 b3lypd3vdz=-157.05979380292 
     C      2.08100000      0.19180000      3.00120000   -0.0607   58.5896
     C      2.64120000     -0.80650000      2.18810000   -0.0709   53.1201
     C      6.02880000     -1.42020000     -0.11300000   -0.0785   56.6082
     C      6.04520000     -0.70090000      1.09900000   -0.0406   60.4051
     H      3.50920000     -0.57500000      1.56880000    0.0355   24.8819
     H      2.49250000      1.21150000      2.97110000    0.0261   25.0141
     H      1.22090000     -0.08240000      3.62970000    0.0273   25.1125
     H      2.23470000     -1.82840000      2.16590000    0.0238   25.0945
     H      5.87840000      0.37770000      1.10230000    0.0390   25.1141
     H      5.88110000     -1.12740000     -1.16300000    0.0313   24.8648
     H      6.20500000     -2.50590000     -0.09900000    0.0265   25.4774
     H      6.21940000     -1.25390000      2.03380000    0.0412   24.8384
