14
chgs=0 nmr=1 alpha=47.76 b3lypd3vdz=-158.298352607677 
     C      2.08100000      0.19180000      3.00120000   -0.0574   57.1657
     C      2.64120000     -0.80650000      2.18810000   -0.0678   56.0035
     C      3.96600000      0.65520000     -1.66450000   -0.0667  180.3161
     C      5.43980000      0.31980000     -1.99600000   -0.0650  180.8631
     H      3.50920000     -0.57500000      1.56880000    0.0344   25.1633
     H      2.49250000      1.21150000      2.97110000    0.0312   24.8891
     H      1.22090000     -0.08240000      3.62970000    0.0307   24.9935
     H      2.23470000     -1.82840000      2.16590000    0.0295   25.0100
     H      3.89510000      0.83610000     -0.58100000    0.0222   30.3405
     H      5.58910000      0.39330000     -3.08410000    0.0209   30.3375
     H      6.04570000      1.11050000     -1.53420000    0.0184   30.3291
     H      3.33350000     -0.20980000     -1.91290000    0.0245   30.2261
     H      3.68100000      1.60630000     -2.13800000    0.0217   30.2982
     H      5.72960000     -0.67490000     -1.62650000    0.0234   30.3746
