12
chgs=0 nmr=1 alpha=43.04 b3lypd3vdz=-248.353994698036 
     N      0.09590000      1.69900000      1.09290000   -0.1854  243.0924
     C     -1.35040000      1.82310000      1.05140000   -0.0151  137.5888
     C     -1.91270000      0.47570000      1.51600000    0.2012  -13.0400
     O     -1.83470000     -0.51030000      0.76680000   -0.2256 -339.9015
     C     -1.88600000      2.12790000     -0.35750000    0.0467  167.9904
     H      0.50170000      0.84260000      0.71010000    0.0896   31.0169
     H     -1.61820000      2.64140000      1.72800000   -0.0118   28.3086
     H     -1.37820000      3.00360000     -0.78400000    0.0027   30.6226
     H     -1.69840000      1.28000000     -1.04010000    0.0271   29.5000
     H      0.69480000      2.44590000      1.38170000    0.0802   31.0059
     H     -2.39240000      0.39280000      2.50240000   -0.0134   20.9287
     H     -2.96960000      2.31430000     -0.32560000    0.0037   30.6882
