12
chgs=0 nmr=1 alpha=43.51 b3lypd3vdz=-248.332817269414 
     N     -2.50100000      0.37410000      2.72560000   -0.2814  253.5328
     C     -3.06370000     -0.92600000      3.11590000    0.0890  120.2131
     C     -4.17810000     -1.39590000      2.16520000    0.1402  -15.6778
     O     -4.36040000     -2.59610000      1.96420000   -0.2094 -384.1777
     C     -2.78870000      1.44460000      3.69700000    0.0805  144.7930
     H     -2.29450000     -1.70630000      3.05990000    0.0282   27.8417
     H     -1.88090000      1.68360000      4.27730000    0.0218   27.6651
     H     -3.13200000      2.35020000      3.17990000    0.0223   27.9523
     H     -2.06490000      0.44940000      1.82890000    0.0672   31.6237
     H     -3.40980000     -0.74980000      4.14510000    0.0375   28.0214
     H     -4.78910000     -0.61280000      1.69260000   -0.0212   21.2877
     H     -3.57200000      0.99770000      4.32680000    0.0252   28.7537
