18
b3lypd3vdz=-363.969936965253 
     C     -1.91270000      0.47570000      1.51600000
     O     -1.83470000     -0.51030000      0.76680000
     N      0.29000000     -2.47520000     -0.72790000
     C      1.51630000     -2.25140000     -1.46470000
     C      2.12680000     -2.09980000      2.16000000
     C      1.01760000     -2.42980000      2.95410000
     O      0.45780000     -3.67340000      2.95140000
     H     -1.50900000      1.44310000      1.18240000
     H     -2.39240000      0.39280000      2.50240000
     H     -0.46940000     -1.80640000     -0.84560000
     H      2.30700000     -2.84320000     -0.97730000
     H      0.13210000     -3.33170000     -0.23650000
     H      1.82450000     -1.19670000     -1.41380000
     H      1.41200000     -2.60180000     -2.50220000
     H      2.57640000     -2.86320000      1.52270000
     H      0.82970000     -4.18290000      2.20160000
     H      2.53330000     -1.07790000      2.18220000
     H      0.57880000     -1.66260000      3.60900000
