21
chgs=0 nmr=1 alpha=82.72 b3lypd3vdz=-274.933894384346 
     C     -3.06370000     -0.92600000      3.11590000   -0.0609  180.7419
     C     -3.54840000     -0.67920000      4.55730000   -0.0646  182.8766
     C      2.64600000      1.59200000      2.95990000    0.0480  171.6243
     C      2.08100000      0.19180000      3.00120000   -0.1742   45.6002
     C      2.64120000     -0.80650000      2.18810000    0.0136   72.3952
     C      0.98480000     -0.15760000      3.80220000   -0.0090   53.1986
     C      0.45840000     -1.45210000      3.78880000    0.0091   69.9725
     H     -2.29450000     -1.70630000      3.05990000    0.0178   30.4747
     H     -4.39500000     -1.32650000      4.82530000    0.0216   30.3653
     H     -2.72210000     -0.89730000      5.25360000    0.0197   30.2241
     H     -2.64250000      0.04720000      2.82370000    0.0220   30.1888
     H     -3.86060000     -1.26200000      2.43610000    0.0150   30.4085
     H     -3.78740000      0.39440000      4.57090000    0.0228   30.0217
     H      3.74190000      1.55800000      3.06080000    0.0368   29.2560
     H      2.25480000      2.20950000      3.78430000    0.0143   30.2770
     H      3.50920000     -0.57500000      1.56880000   -0.0048   26.3309
     H      0.53070000      0.59650000      4.45220000   -0.0324   25.1542
     H     -0.38490000     -1.72720000      4.42550000    0.0256   26.0560
     H      2.45380000      2.10780000      2.00750000    0.0444   29.2885
     H      2.23470000     -1.82840000      2.16590000    0.0156   23.9276
     H      0.89720000     -2.21930000      3.13390000    0.0197   23.9976
