18
chgs=0 nmr=1 alpha=65.46 b3lypd3vdz=-326.966758314636 
     C     -5.95950000     -0.75220000      0.59260000    0.0696  164.2361
     C     -3.06370000     -0.92600000      3.11590000    0.0287  138.1994
     C     -4.17810000     -1.39590000      2.16520000    0.1081   25.2907
     O     -4.36040000     -2.59610000      1.96420000   -0.2823  -80.3609
     C     -3.54840000     -0.67920000      4.55730000   -0.0189  169.0514
     C     -3.88230000      0.82070000      4.57630000   -0.0247  163.2109
     N     -4.93360000     -0.42760000      1.58080000   -0.1520  156.6722
     H     -6.64650000     -1.48990000      1.03030000    0.0423   28.3558
     H     -2.29450000     -1.70630000      3.05990000    0.0162   28.8204
     H     -4.39500000     -1.32650000      4.82530000    0.0200   30.0935
     H     -2.72210000     -0.89730000      5.25360000    0.0123   29.9332
     H     -4.86980000      0.99170000      4.11760000    0.0198   29.5479
     H     -3.89940000      1.24920000      5.58850000    0.0155   29.8555
     H     -4.60560000      0.53540000      1.61300000    0.0875   27.2655
     H     -5.59000000     -1.27100000     -0.30420000    0.0346   28.7132
     H     -6.50330000      0.16910000      0.33670000    0.0197   29.2402
     H     -2.64250000      0.04720000      2.82370000   -0.0087   29.6948
     H     -3.09900000      1.26760000      3.94650000    0.0124   30.4681
