14
chgs=0 nmr=1 alpha=47.48 b3lypd3vdz=-158.300214893428 
     C      2.64120000     -0.80650000      2.18810000   -0.0616   59.5125
     C      2.12680000     -2.09980000      2.16000000   -0.0568   59.4879
     C      3.96600000      0.65520000     -1.66450000   -0.0668  180.2826
     C      5.43980000      0.31980000     -1.99600000   -0.0649  180.8570
     H      3.50920000     -0.57500000      1.56880000    0.0351   25.2563
     H      2.57640000     -2.86320000      1.52270000    0.0265   25.2270
     H      2.20230000     -0.02440000      2.82510000    0.0283   25.1090
     H      1.25750000     -2.35840000      2.78240000    0.0287   25.2243
     H      3.89510000      0.83610000     -0.58100000    0.0221   30.3894
     H      5.58910000      0.39330000     -3.08410000    0.0209   30.3324
     H      6.04570000      1.11050000     -1.53420000    0.0185   30.3305
     H      3.33350000     -0.20980000     -1.91290000    0.0253   30.1921
     H      3.68100000      1.60630000     -2.13800000    0.0216   30.3103
     H      5.72960000     -0.67490000     -1.62650000    0.0232   30.3604
