20
chgs=0 nmr=1 alpha=65.55 b3lypd3vdz=-365.238750684939 
     O      0.17140000     -2.23790000     -3.52280000   -0.2886  300.5047
     N      0.29000000     -2.47520000     -0.72790000   -0.2283  261.2061
     C      1.51630000     -2.25140000     -1.46470000    0.0566  146.0623
     C      1.36760000     -2.75080000     -2.94330000    0.1481  125.6024
     C     -2.83870000     -1.09330000     -3.13790000    0.0848  134.9147
     O     -1.71160000     -0.46870000     -2.50910000   -0.3037  301.1326
     C     -3.77040000     -0.02030000     -3.68410000   -0.0131  171.8932
     H     -0.55590000     -2.85860000     -3.27480000    0.1555   29.6160
     H     -0.46940000     -1.80640000     -0.84560000    0.0778   30.0348
     H      2.30700000     -2.84320000     -0.97730000    0.0050   28.8540
     H      2.19480000     -2.32230000     -3.53340000    0.0092   28.0557
     H      0.13210000     -3.33170000     -0.23650000    0.0726   31.7932
     H      1.82450000     -1.19670000     -1.41380000    0.0245   28.5023
     H      1.40180000     -3.84800000     -3.01410000    0.0030   28.4099
     H     -2.49380000     -1.73900000     -3.96220000   -0.0023   28.0827
     H     -0.90150000     -0.86780000     -2.89010000    0.1456   27.6259
     H     -3.25600000      0.55400000     -4.46900000    0.0214   30.1804
     H     -4.68470000     -0.46680000     -4.10730000    0.0052   30.5291
     H     -4.05240000      0.68150000     -2.88650000    0.0269   30.1061
     H     -3.34220000     -1.75290000     -2.41580000   -0.0003   27.9609
