12
chgs=0 nmr=1 alpha=45.68 b3lypd3vdz=-157.111978542017 
     C      2.64600000      1.59200000      2.95990000    0.0082  163.5298
     C      2.08100000      0.19180000      3.00120000   -0.0869   37.9875
     C      2.64120000     -0.80650000      2.18810000   -0.0080   61.3250
     C      2.37390000      2.32220000      1.61150000   -0.0157  167.8129
     H      3.74190000      1.55800000      3.06080000    0.0220   29.0056
     H      2.25480000      2.20950000      3.78430000    0.0070   29.5493
     H      3.50920000     -0.57500000      1.56880000    0.0117   25.3993
     H      2.62670000      1.62560000      0.80080000    0.0190   30.5079
     H      1.22090000     -0.08240000      3.62970000   -0.0108   24.2501
     H      2.23470000     -1.82840000      2.16590000    0.0193   25.3673
     H      2.99190000      3.22490000      1.49700000    0.0140   30.0635
     H      1.31330000      2.59870000      1.51820000    0.0202   30.0617
