16
chgs=0 nmr=1 alpha=57.27 b3lypd3vdz=-362.887793435061 
     C     -3.54700000     -2.02120000     -2.12210000    0.0566  143.9452
     C     -2.54580000     -3.08320000     -1.64360000    0.0703   26.7499
     O     -1.85310000     -3.71080000     -2.46200000   -0.2964  -50.9559
     C     -2.83870000     -1.09330000     -3.13790000    0.0297  122.4862
     O     -1.71160000     -0.46870000     -2.50910000   -0.2864  290.2171
     C     -3.77040000     -0.02030000     -3.68410000    0.0523  168.3866
     N     -2.40610000     -3.22870000     -0.31420000   -0.0399  163.8258
     H     -4.37040000     -2.54620000     -2.62940000    0.0291   29.5112
     H     -2.49380000     -1.73900000     -3.96220000    0.0084   26.9390
     H     -0.90150000     -0.86780000     -2.89010000    0.1556   30.0662
     H     -3.25600000      0.55400000     -4.46900000    0.0146   30.0636
     H     -4.68470000     -0.46680000     -4.10730000    0.0101   30.4539
     H     -4.05240000      0.68150000     -2.88650000    0.0198   30.3522
     H     -3.05840000     -2.77050000      0.31520000    0.0919   27.1881
     H     -3.99630000     -1.45650000     -1.29190000   -0.0074   29.8074
     H     -1.68320000     -3.77990000      0.10240000    0.0917   27.5957
