6
chgs=0 nmr=1 alpha=22.32 b3lypd3vdz=-78.532740342205 
     C      0.98480000     -0.15760000      3.80220000   -0.0575   58.9909
     C      0.45840000     -1.45210000      3.78880000   -0.0584   58.8024
     H      0.53070000      0.59650000      4.45220000    0.0282   25.2357
     H     -0.38490000     -1.72720000      4.42550000    0.0281   25.2064
     H      1.84490000      0.11660000      3.17370000    0.0304   25.0913
     H      0.89720000     -2.21930000      3.13390000    0.0291   25.2038
