18
chgs=0 nmr=1 alpha=70.43 b3lypd3vdz=-235.640854384965 
     C      6.02880000     -1.42020000     -0.11300000   -0.0777   56.6915
     C      6.04520000     -0.70090000      1.09900000   -0.0428   60.0707
     C      2.64600000      1.59200000      2.95990000    0.0069  163.7251
     C      2.08100000      0.19180000      3.00120000   -0.0892   39.1713
     C      2.64120000     -0.80650000      2.18810000   -0.0196   58.4328
     C      2.37390000      2.32220000      1.61150000   -0.0168  167.8080
     H      5.87840000      0.37770000      1.10230000    0.0402   25.0164
     H      5.88110000     -1.12740000     -1.16300000    0.0308   24.8328
     H      6.20500000     -2.50590000     -0.09900000    0.0267   25.4655
     H      6.21940000     -1.25390000      2.03380000    0.0410   24.7667
     H      3.74190000      1.55800000      3.06080000    0.0202   29.0473
     H      2.25480000      2.20950000      3.78430000    0.0059   29.5848
     H      3.50920000     -0.57500000      1.56880000    0.0230   24.9534
     H      2.62670000      1.62560000      0.80080000    0.0208   30.4953
     H      1.22090000     -0.08240000      3.62970000   -0.0147   24.3781
     H      2.23470000     -1.82840000      2.16590000    0.0138   25.4415
     H      2.99190000      3.22490000      1.49700000    0.0118   30.0781
     H      1.31330000      2.59870000      1.51820000    0.0197   30.0749
