15
chgs=0 nmr=1 alpha=52.12 b3lypd3vdz=-233.491689608783 
     C     -3.06370000     -0.92600000      3.11590000   -0.0654  181.9293
     C     -3.54840000     -0.67920000      4.55730000   -0.0638  182.8018
     C      0.45840000     -1.45210000      3.78880000   -0.0694   90.5379
     C      1.01760000     -2.42980000      2.95410000    0.0344   36.2591
     O      0.45780000     -3.67340000      2.95140000   -0.1769  216.1579
     H     -2.29450000     -1.70630000      3.05990000    0.0325   30.0710
     H     -4.39500000     -1.32650000      4.82530000    0.0198   30.3661
     H     -2.72210000     -0.89730000      5.25360000    0.0212   30.1887
     H     -2.64250000      0.04720000      2.82370000    0.0170   30.2331
     H     -3.86060000     -1.26200000      2.43610000    0.0115   30.4477
     H     -3.78740000      0.39440000      4.57090000    0.0206   30.0581
     H     -0.38490000     -1.72720000      4.42550000    0.0303   26.1921
     H      0.82970000     -4.18290000      2.20160000    0.1587   28.3668
     H      0.87270000     -0.43320000      3.79930000    0.0189   26.6738
     H      1.88690000     -2.17120000      2.33170000    0.0105   24.0368
