9
chgs=0 nmr=1 alpha=31.92 b3lypd3vdz=-209.097366575329 
     C      0.07660000     -3.63300000     -0.06370000    0.1940   35.9424
     O      0.98870000     -4.40750000      0.25670000   -0.2913 -107.9555
     N      0.29000000     -2.47520000     -0.72790000   -0.1507  155.4606
     C      1.51630000     -2.25140000     -1.46470000    0.0541  167.9446
     H     -0.46940000     -1.80640000     -0.84560000    0.0858   27.4731
     H      2.30700000     -2.84320000     -0.97730000    0.0563   26.9935
     H     -0.95650000     -3.91430000      0.18850000   -0.0117   23.0547
     H      1.82450000     -1.19670000     -1.41380000    0.0276   29.2370
     H      1.41200000     -2.60180000     -2.50220000    0.0359   29.0710
