16
chgs=0 nmr=1 alpha=58.91 b3lypd3vdz=-271.575557011181 
     C      2.64120000     -0.80650000      2.18810000   -0.0658   60.1386
     C      2.12680000     -2.09980000      2.16000000   -0.0550   58.8425
     C      3.96600000      0.65520000     -1.66450000   -0.1002  149.9859
     C      3.56570000      1.99100000     -2.32950000    0.1653   -8.1743
     O      4.40780000      2.72380000     -2.83520000   -0.2007 -352.1376
     C      5.43980000      0.31980000     -1.99600000   -0.0151  180.3949
     H      3.50920000     -0.57500000      1.56880000    0.0329   25.3420
     H      2.57640000     -2.86320000      1.52270000    0.0275   25.1915
     H      2.20230000     -0.02440000      2.82510000    0.0303   25.1151
     H      1.25750000     -2.35840000      2.78240000    0.0312   25.1702
     H      3.89510000      0.83610000     -0.58100000    0.0499   29.5436
     H      5.58910000      0.39330000     -3.08410000    0.0307   30.2075
     H      6.04570000      1.11050000     -1.53420000    0.0306   30.0116
     H      3.33350000     -0.20980000     -1.91290000    0.0317   28.8429
     H      2.49780000      2.24810000     -2.27050000   -0.0073   21.1686
     H      5.72960000     -0.67490000     -1.62650000    0.0139   30.5415
