19
chgs=0 nmr=1 alpha=74.93 b3lypd3vdz=-310.839481276962 
     C     -3.06370000     -0.92600000      3.11590000   -0.0651  181.7814
     C     -3.54840000     -0.67920000      4.55730000   -0.0640  182.7652
     C      2.64120000     -0.80650000      2.18810000    0.0245   69.1297
     C      2.12680000     -2.09980000      2.16000000   -0.0282   58.1316
     C      0.45840000     -1.45210000      3.78880000   -0.0255   97.6971
     C      1.01760000     -2.42980000      2.95410000    0.0081   32.9003
     O      0.45780000     -3.67340000      2.95140000   -0.1823  217.0848
     H     -2.29450000     -1.70630000      3.05990000    0.0322   30.0960
     H     -4.39500000     -1.32650000      4.82530000    0.0199   30.3715
     H     -2.72210000     -0.89730000      5.25360000    0.0216   30.1892
     H     -2.64250000      0.04720000      2.82370000    0.0165   30.2240
     H     -3.86060000     -1.26200000      2.43610000    0.0116   30.4536
     H     -3.78740000      0.39440000      4.57090000    0.0202   30.0468
     H      3.50920000     -0.57500000      1.56880000    0.0181   26.2680
     H      2.57640000     -2.86320000      1.52270000   -0.0230   25.6480
     H     -0.38490000     -1.72720000      4.42550000    0.0169   26.8551
     H      0.82970000     -4.18290000      2.20160000    0.1464   28.8994
     H      2.20230000     -0.02440000      2.82510000    0.0321   24.0358
     H      0.87270000     -0.43320000      3.79930000    0.0200   25.0368
