14
chgs=0 nmr=1 alpha=65.02 b3lypd3vdz=-270.36691734604 
     C      2.64600000      1.59200000      2.95990000    0.0324  175.0663
     C      2.08100000      0.19180000      3.00120000   -0.1175   72.1701
     C      2.64120000     -0.80650000      2.18810000    0.0374   57.0621
     C      2.12680000     -2.09980000      2.16000000   -0.0513   83.2331
     C      1.01760000     -2.42980000      2.95410000    0.1120   40.8808
     O      0.45780000     -3.67340000      2.95140000   -0.1773  202.1615
     H      3.74190000      1.55800000      3.06080000    0.0290   29.4572
     H      2.25480000      2.20950000      3.78430000    0.0129   30.0723
     H      3.50920000     -0.57500000      1.56880000   -0.0409   25.4923
     H      2.57640000     -2.86320000      1.52270000   -0.0384   26.3688
     H      0.82970000     -4.18290000      2.20160000    0.1597   27.7559
     H      2.45380000      2.10780000      2.00750000    0.0333   29.4935
     H      1.22090000     -0.08240000      3.62970000   -0.0153   23.9601
     H      0.57880000     -1.66260000      3.60900000    0.0239   22.4511
