17
chgs=0 nmr=1 alpha=55.68 b3lypd3vdz=-380.056553619616 
     N      3.18890000      3.51260000      1.46050000   -0.2374  261.0416
     C      2.37390000      2.32220000      1.61150000    0.0462  162.6365
     C      1.57950000      4.49420000     -1.45790000    0.1817    4.9478
     O      2.47210000      5.11220000     -0.91980000   -0.1911 -405.3527
     N      3.11920000     -0.50300000     -1.99710000   -0.0669  165.2930
     C      1.94450000     -0.78610000     -1.39400000    0.1719   36.1788
     O      1.25770000      0.07870000     -0.82990000   -0.2764 -108.9119
     H      2.70330000      4.40390000      1.49810000    0.0801   31.5711
     H      2.62670000      1.62560000      0.80080000    0.0059   28.7212
     H      4.10140000      3.46040000      1.05490000    0.0651   32.4705
     H      1.31330000      2.59870000      1.51820000    0.0163   29.1995
     H      2.56610000      1.80640000      2.56390000    0.0006   28.7739
     H      1.70330000      3.85730000     -2.34620000    0.0048   21.4841
     H      0.55720000      4.43690000     -1.05590000    0.0055   21.5622
     H      3.66780000     -1.30950000     -2.29190000    0.0924   27.9365
     H      3.69420000      0.28340000     -1.77130000    0.1013   27.6385
     H      1.63630000     -1.84080000     -1.44490000   -0.0003   23.3304
