14
chgs=0 nmr=1 alpha=40.16 b3lypd3vdz=-191.572761851343 
     N      3.18890000      3.51260000      1.46050000   -0.2391  268.1706
     C      2.37390000      2.32220000      1.61150000    0.0430  162.4583
     N      3.11920000     -0.50300000     -1.99710000   -0.2392  263.7911
     C      3.96600000      0.65520000     -1.66450000    0.0388  161.9732
     H      2.70330000      4.40390000      1.49810000    0.0772   31.5674
     H      2.62670000      1.62560000      0.80080000    0.0152   28.2383
     H      4.10140000      3.46040000      1.05490000    0.0733   32.0955
     H      1.31330000      2.59870000      1.51820000    0.0178   28.8764
     H      2.56610000      1.80640000      2.56390000    0.0098   28.5631
     H      3.66780000     -1.30950000     -2.29190000    0.0758   31.5608
     H      3.89510000      0.83610000     -0.58100000    0.0173   28.0815
     H      2.24940000     -0.71260000     -1.55050000    0.0739   32.0568
     H      3.68100000      1.60630000     -2.13800000    0.0166   28.8039
     H      5.01370000      0.41680000     -1.90020000    0.0196   29.0563
