17
chgs=0 nmr=1 alpha=76.06 b3lypd3vdz=-309.623484775906 
     C      4.42820000      3.44170000      0.90960000    0.1859   -6.9091
     O      4.96590000      2.35460000      0.66000000   -0.1865 -463.4052
     C      5.96040000     -2.19040000     -2.23880000    0.0404   56.1975
     C      6.02880000     -1.42020000     -0.11300000   -0.0112   29.1081
     C      6.04520000     -0.70090000      1.09900000   -0.0100   74.0292
     C      5.43980000      0.31980000     -1.99600000    0.0573  178.1539
     C      5.83470000     -1.03550000     -1.49250000   -0.2123   42.1591
     H      4.93670000      4.38870000      0.67620000    0.0231   21.2871
     H      3.42440000      3.49910000      1.35580000    0.0251   21.2795
     H      5.91250000     -2.32370000     -3.31810000   -0.0077   25.8476
     H      5.87840000      0.37770000      1.10230000    0.0213   24.5040
     H      5.58910000      0.39330000     -3.08410000    0.0152   29.6003
     H      6.04570000      1.11050000     -1.53420000    0.0363   29.2611
     H      6.15540000     -3.04570000     -1.57510000    0.0037   25.2045
     H      6.20500000     -2.50590000     -0.09900000   -0.0317   24.0794
     H      6.21940000     -1.25390000      2.03380000    0.0104   25.8608
     H      4.39210000      0.55820000     -1.76030000    0.0409   29.8124
