18
chgs=0 nmr=1 alpha=80.49 b3lypd3vdz=-289.770887036532 
     N      3.18890000      3.51260000      1.46050000   -0.2058  245.8099
     C      2.37390000      2.32220000      1.61150000    0.0718  140.2405
     C      2.64600000      1.59200000      2.95990000    0.0736  146.9111
     C      2.08100000      0.19180000      3.00120000   -0.0631   54.0670
     C      2.64120000     -0.80650000      2.18810000    0.0354   57.2110
     C      2.12680000     -2.09980000      2.16000000   -0.0188   55.3251
     C      1.01760000     -2.42980000      2.95410000   -0.0107   74.0880
     H      2.70330000      4.40390000      1.49810000    0.0776   30.7128
     H      2.62670000      1.62560000      0.80080000    0.0044   28.6950
     H      3.74190000      1.55800000      3.06080000    0.0073   29.2431
     H      2.25480000      2.20950000      3.78430000   -0.0101   29.2426
     H      3.50920000     -0.57500000      1.56880000   -0.0365   25.2380
     H      2.57640000     -2.86320000      1.52270000   -0.0259   25.0782
     H      4.10140000      3.46040000      1.05490000    0.0740   31.1402
     H      1.31330000      2.59870000      1.51820000    0.0107   28.5504
     H      1.22090000     -0.08240000      3.62970000   -0.0150   23.0803
     H      0.57880000     -1.66260000      3.60900000    0.0194   24.1417
     H      0.56610000     -3.43290000      2.95190000    0.0116   26.2238
