16
chgs=0 nmr=1 alpha=73.97 b3lypd3vdz=-325.701549247135 
     C      6.02880000     -1.42020000     -0.11300000   -0.0431   34.1116
     C      6.04520000     -0.70090000      1.09900000    0.0028   51.1053
     C      6.26560000     -1.40060000      2.28170000   -0.0049   66.2404
     C      5.83470000     -1.03550000     -1.49250000   -0.0259   62.8146
     C      4.42820000      3.44170000      0.90960000    0.1795   36.2987
     O      4.96590000      2.35460000      0.66000000   -0.2656  -95.9564
     N      3.18890000      3.51260000      1.46050000   -0.0701  161.6538
     H      5.87840000      0.37770000      1.10230000   -0.0101   23.1502
     H      6.27140000     -0.86200000      3.23210000    0.0104   26.1168
     H      6.20500000     -2.50590000     -0.09900000   -0.0281   24.4008
     H      6.42710000     -2.48870000      2.28190000    0.0113   25.7898
     H      5.54490000     -0.04080000     -1.86200000    0.0219   25.0010
     H      5.93480000     -1.95560000     -2.08700000    0.0164   25.6631
     H      2.70330000      4.40390000      1.49810000    0.0982   27.3008
     H      4.93670000      4.38870000      0.67620000    0.0043   23.1547
     H      2.62700000      2.69190000      1.56460000    0.1031   27.3293
