13
chgs=0 nmr=1 alpha=46.51 b3lypd3vdz=-323.541359293389 
     C      1.94450000     -0.78610000     -1.39400000    0.1785   -4.0503
     O      1.25770000      0.07870000     -0.82990000   -0.2010 -487.1050
     N     -2.50100000      0.37410000      2.72560000   -0.1302  159.5353
     C     -1.91270000      0.47570000      1.51600000    0.1783   35.3276
     O     -1.83470000     -0.51030000      0.76680000   -0.2939 -114.5986
     C     -2.78870000      1.44460000      3.69700000    0.0537  163.1207
     H      1.63630000     -1.84080000     -1.44490000    0.0164   21.3413
     H      2.90130000     -0.55550000     -1.88520000    0.0075   21.2843
     H     -1.88090000      1.68360000      4.27730000    0.0413   28.3141
     H     -3.13200000      2.35020000      3.17990000    0.0422   28.3371
     H     -2.88390000     -0.51070000      2.99120000    0.0798   27.8110
     H     -1.50900000      1.44310000      1.18240000   -0.0094   22.9440
     H     -3.57200000      0.99770000      4.32680000    0.0367   28.8075
