11
chgs=0 nmr=1 alpha=42.33 b3lypd3vdz=-173.138021292388 
     C      5.96040000     -2.19040000     -2.23880000   -0.0040   57.1538
     N      6.20610000     -3.26820000     -1.40250000   -0.0745  202.5146
     C      5.43980000      0.31980000     -1.99600000    0.0484  178.4926
     C      5.83470000     -1.03550000     -1.49250000   -0.1074   91.6027
     H      5.91250000     -2.32370000     -3.31810000   -0.0106   25.1554
     H      6.40150000     -4.21130000     -1.70730000    0.0808   29.4210
     H      5.58910000      0.39330000     -3.08410000    0.0112   29.8343
     H      6.04570000      1.11050000     -1.53420000    0.0154   29.9892
     H      6.24290000     -2.94790000     -0.45590000    0.0717   27.9995
     H      4.39210000      0.55820000     -1.76030000    0.0235   29.6973
     H      5.98240000     -1.32830000     -0.44250000   -0.0544   26.6297
