17
chgs=0 nmr=1 alpha=65.03 b3lypd3vdz=-251.665363922428 
     N      0.29000000     -2.47520000     -0.72790000   -0.2384  259.9950
     C      1.51630000     -2.25140000     -1.46470000    0.0526  162.1374
     C      2.08100000      0.19180000      3.00120000    0.0012   71.3841
     C      2.64120000     -0.80650000      2.18810000   -0.0260   53.9333
     C      2.12680000     -2.09980000      2.16000000    0.0019   53.6585
     C      1.01760000     -2.42980000      2.95410000   -0.0086   70.6578
     H     -0.46940000     -1.80640000     -0.84560000    0.0783   31.7852
     H      2.30700000     -2.84320000     -0.97730000    0.0121   28.9784
     H      0.13210000     -3.33170000     -0.23650000    0.0726   32.0161
     H      1.82450000     -1.19670000     -1.41380000    0.0211   28.8971
     H      1.41200000     -2.60180000     -2.50220000    0.0051   28.3155
     H      3.50920000     -0.57500000      1.56880000   -0.0233   24.9899
     H      2.57640000     -2.86320000      1.52270000   -0.0229   24.8617
     H      2.49250000      1.21150000      2.97110000    0.0199   25.8119
     H      1.22090000     -0.08240000      3.62970000    0.0212   23.6581
     H      0.57880000     -1.66260000      3.60900000    0.0193   23.8038
     H      0.56610000     -3.43290000      2.95190000    0.0138   26.0603
