19
b3lypd3vdz=-344.139855817816 
     C      2.64120000     -0.80650000      2.18810000
     C      2.12680000     -2.09980000      2.16000000
     N      0.29000000     -2.47520000     -0.72790000
     C      1.51630000     -2.25140000     -1.46470000
     N     -2.50100000      0.37410000      2.72560000
     C     -1.91270000      0.47570000      1.51600000
     O     -1.83470000     -0.51030000      0.76680000
     H      3.50920000     -0.57500000      1.56880000
     H      2.57640000     -2.86320000      1.52270000
     H      2.20230000     -0.02440000      2.82510000
     H      1.25750000     -2.35840000      2.78240000
     H     -0.46940000     -1.80640000     -0.84560000
     H      2.30700000     -2.84320000     -0.97730000
     H      0.13210000     -3.33170000     -0.23650000
     H      1.82450000     -1.19670000     -1.41380000
     H      1.41200000     -2.60180000     -2.50220000
     H     -2.88390000     -0.51070000      2.99120000
     H     -2.69620000      1.10040000      3.38470000
     H     -1.50900000      1.44310000      1.18240000
