4
chgs=0 nmr=1 alpha=13.3 b3lypd3vdz=-114.449056349234 
     C      1.57950000      4.49420000     -1.45790000    0.1789    4.7285
     O      2.47210000      5.11220000     -0.91980000   -0.1859 -422.4529
     H      1.70330000      3.85730000     -2.34620000    0.0043   21.5332
     H      0.55720000      4.43690000     -1.05590000    0.0027   21.6129
