17
chgs=0 nmr=1 alpha=57.59 b3lypd3vdz=-288.819758590561 
     C     -3.36750000      2.38270000     -0.31390000    0.1929   -2.9275
     O     -4.04740000      2.27800000      0.70320000   -0.1851 -415.1922
     C     -5.95950000     -0.75220000      0.59260000    0.1022  147.4523
     C     -6.72760000      0.54920000      0.23110000   -0.0672  163.9680
     C     -7.17340000      0.66390000     -1.24020000   -0.0251  176.2113
     N     -4.93360000     -0.42760000      1.58080000   -0.2345  243.4644
     H     -2.28390000      2.19630000     -0.34580000    0.0272   21.4004
     H     -3.79600000      2.66310000     -1.28740000    0.0248   21.4198
     H     -6.64650000     -1.48990000      1.03030000   -0.0055   28.4507
     H     -7.60780000      0.64120000      0.88650000    0.0071   29.6284
     H     -6.07680000      1.40620000      0.44970000    0.0185   29.7728
     H     -6.30940000      0.50900000     -1.90500000    0.0074   30.8215
     H     -7.93760000     -0.07880000     -1.49670000    0.0170   30.6949
     H     -4.60560000      0.53540000      1.61300000    0.0779   31.2384
     H     -5.59000000     -1.27100000     -0.30420000   -0.0274   29.1746
     H     -7.57180000      1.66990000     -1.43800000    0.0093   30.4949
     H     -4.37810000     -1.13950000      2.01050000    0.0603   32.2733
