17
chgs=0 nmr=1 alpha=73.84 b3lypd3vdz=-309.611118819353 
     C      6.04520000     -0.70090000      1.09900000   -0.0598   59.3641
     C      6.26560000     -1.40060000      2.28170000   -0.0482   56.7646
     C      2.08100000      0.19180000      3.00120000   -0.0324   86.6170
     C      2.64120000     -0.80650000      2.18810000   -0.0056   50.6084
     C      2.12680000     -2.09980000      2.16000000   -0.0565   83.5719
     C      1.01760000     -2.42980000      2.95410000    0.1182   38.4948
     O      0.45780000     -3.67340000      2.95140000   -0.1750  199.0049
     H      5.87840000      0.37770000      1.10230000    0.0365   25.1975
     H      6.27140000     -0.86200000      3.23210000    0.0333   25.2528
     H      6.03240000     -1.26230000      0.15310000    0.0290   25.2335
     H      6.42710000     -2.48870000      2.28190000    0.0299   25.0414
     H      3.50920000     -0.57500000      1.56880000   -0.0288   24.9556
     H      2.57640000     -2.86320000      1.52270000   -0.0400   26.4000
     H      0.82970000     -4.18290000      2.20160000    0.1609   27.5876
     H      2.49250000      1.21150000      2.97110000    0.0076   26.5426
     H      1.22090000     -0.08240000      3.62970000    0.0053   24.6288
     H      0.57880000     -1.66260000      3.60900000    0.0259   22.2673
