11
chgs=0 nmr=1 alpha=51.05 b3lypd3vdz=-231.074894798739 
     C      2.08100000      0.19180000      3.00120000   -0.0321   86.3818
     C      0.98480000     -0.15760000      3.80220000   -0.0108   54.7471
     C      0.45840000     -1.45210000      3.78880000   -0.0092   82.1095
     C      1.01760000     -2.42980000      2.95410000    0.0838   40.8549
     O      0.45780000     -3.67340000      2.95140000   -0.1711  210.7281
     H      0.53070000      0.59650000      4.45220000   -0.0234   25.1825
     H     -0.38490000     -1.72720000      4.42550000   -0.0223   25.8898
     H      0.82970000     -4.18290000      2.20160000    0.1616   28.1844
     H      2.49250000      1.21150000      2.97110000    0.0112   26.5861
     H      2.51990000     -0.59030000      2.36420000    0.0009   24.7871
     H      1.88690000     -2.17120000      2.33170000    0.0115   22.1636
