14
chgs=0 nmr=1 alpha=49.65 b3lypd3vdz=-303.717934819088 
     N      0.09590000      1.69900000      1.09290000   -0.1889  241.8068
     C     -1.35040000      1.82310000      1.05140000    0.0030  139.7974
     C     -1.91270000      0.47570000      1.51600000    0.1438   24.2460
     O     -1.83470000     -0.51030000      0.76680000   -0.2925  -36.8744
     C     -1.88600000      2.12790000     -0.35750000    0.0571  166.0205
     N     -2.50100000      0.37410000      2.72560000   -0.0518  173.5873
     H      0.50170000      0.84260000      0.71010000    0.0889   30.7111
     H     -1.61820000      2.64140000      1.72800000   -0.0271   28.6800
     H     -1.37820000      3.00360000     -0.78400000   -0.0037   30.6584
     H     -1.69840000      1.28000000     -1.04010000    0.0301   29.3594
     H      0.69480000      2.44590000      1.38170000    0.0739   31.0495
     H     -2.96960000      2.31430000     -0.32560000   -0.0001   30.6249
     H     -2.88390000     -0.51070000      2.99120000    0.0867   28.0964
     H     -2.69620000      1.10040000      3.38470000    0.0807   27.4930
