22
chgs=0 nmr=1 alpha=79.42 b3lypd3vdz=-292.142640138302 
     C      2.64120000     -0.80650000      2.18810000   -0.0733   61.1897
     C      2.12680000     -2.09980000      2.16000000   -0.0448   58.3046
     C      6.02880000     -1.42020000     -0.11300000   -0.0800   57.3590
     C      6.04520000     -0.70090000      1.09900000   -0.0400   59.9981
     N      0.29000000     -2.47520000     -0.72790000   -0.2081  242.3197
     C      1.51630000     -2.25140000     -1.46470000    0.0406  150.1453
     C      1.36760000     -2.75080000     -2.94330000   -0.0116  165.8251
     H      3.50920000     -0.57500000      1.56880000    0.0324   25.1217
     H      2.57640000     -2.86320000      1.52270000    0.0225   25.3252
     H      2.20230000     -0.02440000      2.82510000    0.0189   25.3324
     H      1.25750000     -2.35840000      2.78240000    0.0194   25.2031
     H      5.87840000      0.37770000      1.10230000    0.0391   25.1276
     H      5.88110000     -1.12740000     -1.16300000    0.0320   24.8766
     H      6.20500000     -2.50590000     -0.09900000    0.0261   25.4444
     H      6.21940000     -1.25390000      2.03380000    0.0415   24.8045
     H     -0.46940000     -1.80640000     -0.84560000    0.0773   31.2882
     H      2.30700000     -2.84320000     -0.97730000    0.0129   28.7639
     H      2.19480000     -2.32230000     -3.53340000   -0.0082   30.4123
     H      0.13210000     -3.33170000     -0.23650000    0.0717   31.1213
     H      1.82450000     -1.19670000     -1.41380000    0.0145   28.7102
     H      0.44400000     -2.35480000     -3.39070000    0.0054   30.6862
     H      1.40180000     -3.84800000     -3.01410000    0.0117   30.2562
