7
chgs=0 nmr=1 alpha=19.5 b3lypd3vdz=-95.785683451496 
     C     -1.36200000     -4.02470000      0.28750000    0.0584  163.3926
     N     -2.40610000     -3.22870000     -0.31420000   -0.2355  268.2876
     H     -1.46800000     -3.96920000      1.37910000    0.0180   29.1582
     H     -1.43760000     -5.08370000     -0.00650000    0.0022   28.6141
     H     -3.05840000     -2.77050000      0.31520000    0.0786   31.4301
     H     -0.32890000     -3.74340000      0.03530000    0.0043   28.8570
     H     -2.51000000     -3.12050000     -1.30290000    0.0740   32.2648
