11
chgs=0 nmr=1 alpha=34.04 b3lypd3vdz=-210.238771393382 
     N      3.18890000      3.51260000      1.46050000   -0.2343  261.4304
     C      2.37390000      2.32220000      1.61150000    0.0488  163.7307
     C      1.57950000      4.49420000     -1.45790000    0.1793    5.8783
     O      2.47210000      5.11220000     -0.91980000   -0.1850 -413.4121
     H      2.70330000      4.40390000      1.49810000    0.0824   31.5397
     H      2.62670000      1.62560000      0.80080000    0.0041   28.9633
     H      4.10140000      3.46040000      1.05490000    0.0738   32.2599
     H      1.31330000      2.59870000      1.51820000    0.0118   29.2661
     H      2.56610000      1.80640000      2.56390000    0.0113   28.5904
     H      1.70330000      3.85730000     -2.34620000    0.0063   21.5411
     H      0.55720000      4.43690000     -1.05590000    0.0014   21.5984
