18
chgs=0 nmr=1 alpha=66.39 b3lypd3vdz=-326.980487731187 
     C      2.37390000      2.32220000      1.61150000   -0.0031  155.5213
     C      0.90310000      2.70560000      1.48210000    0.1142   24.5654
     O      0.49730000      3.84920000      1.74780000   -0.2989  -53.0874
     C      2.64600000      1.59200000      2.95990000   -0.0209  175.7363
     N      0.09590000      1.69900000      1.09290000   -0.1335  142.6407
     C     -1.35040000      1.82310000      1.05140000    0.0677  154.8101
     C     -1.88600000      2.12790000     -0.35750000   -0.0294  173.1030
     H      2.62670000      1.62560000      0.80080000   -0.0002   29.8328
     H      3.74190000      1.55800000      3.06080000    0.0234   30.1530
     H      2.25480000      2.20950000      3.78430000    0.0376   30.0543
     H      0.50170000      0.84260000      0.71010000    0.0817   26.9776
     H     -1.61820000      2.64140000      1.72800000    0.0410   27.4319
     H     -1.37820000      3.00360000     -0.78400000    0.0357   30.2817
     H     -1.69840000      1.28000000     -1.04010000    0.0091   30.5485
     H      2.99190000      3.22490000      1.49700000    0.0260   29.5021
     H      2.23450000      0.57230000      2.99000000    0.0193   30.3601
     H     -1.75410000      0.85570000      1.38500000    0.0099   28.9284
     H     -2.96960000      2.31430000     -0.32560000    0.0205   30.4404
