13
chgs=0 nmr=1 alpha=45.49 b3lypd3vdz=-323.56778851542 
     C      4.42820000      3.44170000      0.90960000    0.1885   -4.9496
     O      4.96590000      2.35460000      0.66000000   -0.2012 -459.3071
     N      2.23970000      2.31020000     -2.25620000   -0.0740  170.9538
     C      3.96600000      0.65520000     -1.66450000   -0.0189  167.4183
     C      3.56570000      1.99100000     -2.32950000    0.0356   30.5498
     O      4.40780000      2.72380000     -2.83520000   -0.2656  -85.1627
     H      4.93670000      4.38870000      0.67620000    0.0296   21.4502
     H      3.42440000      3.49910000      1.35580000    0.0133   21.3633
     H      1.62560000      1.68770000     -1.72520000    0.0921   27.4304
     H      3.89510000      0.83610000     -0.58100000    0.0492   29.0156
     H      1.90410000      3.20400000     -2.55380000    0.0896   27.9590
     H      3.33350000     -0.20980000     -1.91290000    0.0198   29.9117
     H      5.01370000      0.41680000     -1.90020000    0.0422   29.8641
