16
chgs=0 nmr=1 alpha=53.4 b3lypd3vdz=-308.759219570564 
     C     -6.72760000      0.54920000      0.23110000   -0.0724  182.7176
     C     -7.17340000      0.66390000     -1.24020000   -0.0737  181.9815
     C     -1.88600000      2.12790000     -0.35750000    0.0179  172.6989
     C     -3.36750000      2.38270000     -0.31390000    0.1089   24.1796
     O     -4.04740000      2.27800000      0.70320000   -0.2521 -103.3564
     O     -3.88670000      2.72240000     -1.49350000   -0.1663  141.3877
     H     -7.60780000      0.64120000      0.88650000    0.0129   30.6521
     H     -6.07680000      1.40620000      0.44970000    0.0297   29.1448
     H     -6.30940000      0.50900000     -1.90500000    0.0120   30.6257
     H     -7.93760000     -0.07880000     -1.49670000    0.0206   30.4703
     H     -6.18380000     -0.37210000      0.48700000    0.0175   30.7988
     H     -7.57180000      1.66990000     -1.43800000    0.0119   30.6690
     H     -1.37820000      3.00360000     -0.78400000    0.0519   29.4389
     H     -1.69840000      1.28000000     -1.04010000    0.0569   29.2853
     H     -4.86380000      2.83350000     -1.40270000    0.1728   25.5411
     H     -1.50290000      1.90990000      0.65030000    0.0516   29.5237
