16
chgs=0 nmr=1 alpha=59.78 b3lypd3vdz=-271.562692856307 
     C      1.94450000     -0.78610000     -1.39400000    0.1818   -5.4475
     O      1.25770000      0.07870000     -0.82990000   -0.1962 -476.4866
     C      2.64600000      1.59200000      2.95990000    0.0036  163.3446
     C      2.08100000      0.19180000      3.00120000   -0.0776   38.9840
     C      2.64120000     -0.80650000      2.18810000   -0.0086   61.1788
     C      2.37390000      2.32220000      1.61150000   -0.0152  168.8101
     H      1.63630000     -1.84080000     -1.44490000    0.0174   21.3582
     H      2.90130000     -0.55550000     -1.88520000    0.0148   21.3042
     H      3.74190000      1.55800000      3.06080000    0.0175   29.1360
     H      2.25480000      2.20950000      3.78430000    0.0040   29.5840
     H      3.50920000     -0.57500000      1.56880000    0.0036   25.8858
     H      2.62670000      1.62560000      0.80080000    0.0247   30.2503
     H      1.22090000     -0.08240000      3.62970000   -0.0119   24.3820
     H      2.23470000     -1.82840000      2.16590000    0.0135   25.6323
     H      2.99190000      3.22490000      1.49700000    0.0065   30.1996
     H      1.31330000      2.59870000      1.51820000    0.0219   29.9747
