18
chgs=0 nmr=1 alpha=70.12 b3lypd3vdz=-235.640841346624 
     C     -3.06370000     -0.92600000      3.11590000   -0.0613  180.9200
     C     -3.54840000     -0.67920000      4.55730000   -0.0650  182.8939
     C      0.98480000     -0.15760000      3.80220000   -0.0021   72.9941
     C      2.12680000     -2.09980000      2.16000000    0.0081   70.6608
     C      0.45840000     -1.45210000      3.78880000   -0.0239   53.2012
     C      1.01760000     -2.42980000      2.95410000   -0.0308   53.0705
     H     -2.29450000     -1.70630000      3.05990000    0.0171   30.6112
     H     -4.39500000     -1.32650000      4.82530000    0.0219   30.3743
     H     -2.72210000     -0.89730000      5.25360000    0.0203   30.2647
     H     -2.64250000      0.04720000      2.82370000    0.0238   30.1319
     H     -3.86060000     -1.26200000      2.43610000    0.0162   30.4074
     H     -3.78740000      0.39440000      4.57090000    0.0241   30.0161
     H      0.53070000      0.59650000      4.45220000    0.0167   26.1442
     H      2.57640000     -2.86320000      1.52270000    0.0173   26.0812
     H     -0.38490000     -1.72720000      4.42550000   -0.0131   24.8651
     H      1.84490000      0.11660000      3.17370000    0.0239   23.7734
     H      2.53330000     -1.07790000      2.18220000    0.0251   23.5438
     H      0.56610000     -3.43290000      2.95190000   -0.0182   24.8325
