20
chgs=0 nmr=1 alpha=69.89 b3lypd3vdz=-328.076577856953 
     C      2.64120000     -0.80650000      2.18810000   -0.0443   55.5994
     C      2.12680000     -2.09980000      2.16000000   -0.0714   62.7426
     N      0.09590000      1.69900000      1.09290000   -0.2614  259.8190
     C     -1.35040000      1.82310000      1.05140000    0.0635  161.8451
     C      1.51630000     -2.25140000     -1.46470000   -0.0416  157.1125
     C      1.94450000     -0.78610000     -1.39400000    0.1428  -11.2371
     O      1.25770000      0.07870000     -0.82990000   -0.2033 -378.0307
     H      3.50920000     -0.57500000      1.56880000    0.0199   25.7381
     H      2.57640000     -2.86320000      1.52270000    0.0205   25.5486
     H      2.20230000     -0.02440000      2.82510000    0.0366   25.0202
     H      1.25750000     -2.35840000      2.78240000    0.0322   25.3947
     H      0.50170000      0.84260000      0.71010000    0.0902   28.7596
     H     -1.61820000      2.64140000      1.72800000    0.0082   28.8579
     H      0.69480000      2.44590000      1.38170000    0.0595   31.8616
     H     -1.75410000      0.85570000      1.38500000    0.0086   28.3370
     H     -1.73350000      2.04110000      0.04360000   -0.0040   28.3528
     H      2.30700000     -2.84320000     -0.97730000    0.0450   29.4102
     H      0.58470000     -2.42140000     -0.90500000    0.0481   29.3487
     H      1.41200000     -2.60180000     -2.50220000    0.0483   29.1937
     H      2.90130000     -0.55550000     -1.88520000    0.0027   21.3097
