17
chgs=0 nmr=1 alpha=70.6 b3lypd3vdz=-309.629472357471 
     C     -3.06370000     -0.92600000      3.11590000   -0.0579  157.8272
     C     -4.17810000     -1.39590000      2.16520000    0.1274   -7.1445
     O     -4.36040000     -2.59610000      1.96420000   -0.2077 -390.5855
     C      0.98480000     -0.15760000      3.80220000   -0.0022   73.0663
     C      2.12680000     -2.09980000      2.16000000    0.0087   69.9582
     C      0.45840000     -1.45210000      3.78880000   -0.0289   53.0572
     C      1.01760000     -2.42980000      2.95410000   -0.0327   53.3540
     H     -2.29450000     -1.70630000      3.05990000    0.0561   29.5133
     H     -2.64250000      0.04720000      2.82370000    0.0302   29.3926
     H     -3.40980000     -0.74980000      4.14510000    0.0518   29.3267
     H     -4.78910000     -0.61280000      1.69260000   -0.0060   21.2443
     H      0.53070000      0.59650000      4.45220000    0.0154   26.2767
     H      2.57640000     -2.86320000      1.52270000    0.0196   26.0404
     H     -0.38490000     -1.72720000      4.42550000   -0.0118   24.9897
     H      1.84490000      0.11660000      3.17370000    0.0251   23.8037
     H      2.53330000     -1.07790000      2.18220000    0.0253   23.5541
     H      0.56610000     -3.43290000      2.95190000   -0.0123   24.7999
