4
chgs=0 nmr=1 alpha=7.89 b3lypd3vdz=-56.508626752806 
     N      3.18890000      3.51260000      1.46050000   -0.2541  281.4149
     H      2.70330000      4.40390000      1.49810000    0.0859   31.6017
     H      4.10140000      3.46040000      1.05490000    0.0859   31.7092
     H      2.62700000      2.69190000      1.56460000    0.0824   31.9231
