18
chgs=0 nmr=1 alpha=66.07 b3lypd3vdz=-326.882702274338 
     C      0.98480000     -0.15760000      3.80220000   -0.0533   57.8005
     C      0.45840000     -1.45210000      3.78880000   -0.0611   59.6046
     N     -2.50100000      0.37410000      2.72560000   -0.1685  230.5232
     C     -3.06370000     -0.92600000      3.11590000   -0.0426  133.4600
     C     -4.17810000     -1.39590000      2.16520000    0.1896  -20.6287
     O     -4.36040000     -2.59610000      1.96420000   -0.2133 -364.3300
     C     -3.54840000     -0.67920000      4.55730000    0.0095  166.1534
     H      0.53070000      0.59650000      4.45220000    0.0221   25.2460
     H     -0.38490000     -1.72720000      4.42550000    0.0368   25.1437
     H      1.84490000      0.11660000      3.17370000    0.0289   25.0665
     H      0.89720000     -2.21930000      3.13390000    0.0293   25.1552
     H     -2.29450000     -1.70630000      3.05990000    0.0089   28.5605
     H     -4.39500000     -1.32650000      4.82530000    0.0314   30.0604
     H     -2.72210000     -0.89730000      5.25360000    0.0384   29.2731
     H     -2.06490000      0.44940000      1.82890000    0.0816   30.4999
     H     -2.69620000      1.10040000      3.38470000    0.0739   31.4600
     H     -4.78910000     -0.61280000      1.69260000   -0.0295   21.2451
     H     -3.78740000      0.39440000      4.57090000    0.0179   31.0034
