12
chgs=0 nmr=1 alpha=39.37 b3lypd3vdz=-194.248059027665 
     O      0.17140000     -2.23790000     -3.52280000   -0.2739  256.9113
     C      1.41510000     -4.27320000     -3.04150000   -0.0054  163.7765
     C      1.51630000     -2.25140000     -1.46470000    0.0128  163.6070
     C      1.36760000     -2.75080000     -2.94330000    0.0388  124.7006
     H     -0.55590000     -2.85860000     -3.27480000    0.1399   32.0322
     H      1.34630000     -4.57280000     -4.09850000    0.0227   29.9495
     H      2.34810000     -4.66960000     -2.61180000    0.0197   30.2093
     H      0.56830000     -4.72120000     -2.50170000    0.0063   30.7775
     H      2.30700000     -2.84320000     -0.97730000    0.0031   30.5189
     H      2.19480000     -2.32230000     -3.53340000    0.0051   27.5132
     H      0.58470000     -2.42140000     -0.90500000    0.0078   30.6353
     H      1.82450000     -1.19670000     -1.41380000    0.0232   29.7426
