19
chgs=0 nmr=1 alpha=70.38 b3lypd3vdz=-310.822221693132 
     C      2.64120000     -0.80650000      2.18810000   -0.0425   50.9103
     C      2.12680000     -2.09980000      2.16000000   -0.0723   64.6713
     C      6.04520000     -0.70090000      1.09900000   -0.0639   59.7740
     C      6.26560000     -1.40060000      2.28170000   -0.0445   56.0632
     C      1.51630000     -2.25140000     -1.46470000   -0.0394  157.6440
     C      1.94450000     -0.78610000     -1.39400000    0.1302   -8.2046
     O      1.25770000      0.07870000     -0.82990000   -0.2122 -398.0864
     H      3.50920000     -0.57500000      1.56880000    0.0307   25.3200
     H      2.57640000     -2.86320000      1.52270000    0.0171   25.6457
     H      2.20230000     -0.02440000      2.82510000    0.0265   25.0413
     H      1.25750000     -2.35840000      2.78240000    0.0253   25.5674
     H      5.87840000      0.37770000      1.10230000    0.0371   25.2131
     H      6.27140000     -0.86200000      3.23210000    0.0314   25.2778
     H      6.03240000     -1.26230000      0.15310000    0.0261   25.2115
     H      6.42710000     -2.48870000      2.28190000    0.0308   25.0002
     H      2.30700000     -2.84320000     -0.97730000    0.0412   29.4787
     H      0.58470000     -2.42140000     -0.90500000    0.0449   29.4720
     H      1.41200000     -2.60180000     -2.50220000    0.0430   29.3186
     H      2.90130000     -0.55550000     -1.88520000   -0.0095   21.3219
