14
chgs=0 nmr=1 alpha=45.87 b3lypd3vdz=-249.55345052853 
     N      5.62010000      4.82020000     -0.78950000   -0.2017  240.3096
     C      5.13490000      4.75780000      0.58520000    0.0097  161.2372
     C      3.96600000      0.65520000     -1.66450000   -0.0513  157.8053
     C      3.56570000      1.99100000     -2.32950000    0.1280   -6.3104
     O      4.40780000      2.72380000     -2.83520000   -0.2030 -359.6795
     H      6.12690000      3.95360000     -0.98840000    0.0692   31.9233
     H      4.80970000      4.78470000     -1.41320000    0.0753   31.6523
     H      5.99190000      4.83530000      1.27870000    0.0201   29.0625
     H      4.47090000      5.61460000      0.77610000    0.0231   29.2262
     H      4.62640000      3.81080000      0.81860000   -0.0126   29.0274
     H      3.89510000      0.83610000     -0.58100000    0.0538   29.5698
     H      3.33350000     -0.20980000     -1.91290000    0.0438   29.0656
     H      5.01370000      0.41680000     -1.90020000    0.0449   29.4024
     H      2.49780000      2.24810000     -2.27050000    0.0007   21.2465
