13
chgs=0 nmr=1 alpha=41.11 b3lypd3vdz=-265.601986566278 
     N      3.18890000      3.51260000      1.46050000   -0.2431  266.8786
     C      2.37390000      2.32220000      1.61150000    0.0504  161.5729
     N      3.11920000     -0.50300000     -1.99710000   -0.0660  165.7173
     C      1.94450000     -0.78610000     -1.39400000    0.1713   36.4325
     O      1.25770000      0.07870000     -0.82990000   -0.2723 -112.3005
     H      2.70330000      4.40390000      1.49810000    0.0740   31.5875
     H      2.62670000      1.62560000      0.80080000    0.0099   28.3872
     H      4.10140000      3.46040000      1.05490000    0.0643   32.3225
     H      1.31330000      2.59870000      1.51820000    0.0229   28.8352
     H      2.56610000      1.80640000      2.56390000   -0.0002   28.7058
     H      3.66780000     -1.30950000     -2.29190000    0.0908   27.9659
     H      3.69420000      0.28340000     -1.77130000    0.0999   27.6205
     H      1.63630000     -1.84080000     -1.44490000   -0.0021   23.3132
