18
chgs=0 nmr=1 alpha=65.39 b3lypd3vdz=-326.916211463886 
     C      0.98480000     -0.15760000      3.80220000   -0.0606   59.5385
     C      0.45840000     -1.45210000      3.78880000   -0.0522   58.4879
     C     -1.91270000      0.47570000      1.51600000    0.2218   38.1584
     O     -1.83470000     -0.51030000      0.76680000   -0.2998 -118.0974
     N     -2.50100000      0.37410000      2.72560000   -0.1401  122.4444
     C     -3.06370000     -0.92600000      3.11590000    0.0657  155.2530
     C     -3.54840000     -0.67920000      4.55730000   -0.0531  171.5875
     H      0.53070000      0.59650000      4.45220000    0.0170   25.4278
     H     -0.38490000     -1.72720000      4.42550000    0.0304   25.2282
     H      1.84490000      0.11660000      3.17370000    0.0335   25.1952
     H      0.89720000     -2.21930000      3.13390000    0.0363   25.1536
     H     -2.29450000     -1.70630000      3.05990000    0.0337   28.3074
     H     -4.39500000     -1.32650000      4.82530000    0.0309   29.8308
     H     -2.72210000     -0.89730000      5.25360000    0.0350   29.6326
     H     -1.50900000      1.44310000      1.18240000   -0.0149   23.2643
     H     -2.69620000      1.10040000      3.38470000    0.0747   27.7905
     H     -3.86060000     -1.26200000      2.43610000    0.0278   28.4519
     H     -3.78740000      0.39440000      4.57090000    0.0141   30.9131
