15
chgs=0 nmr=1 alpha=55.12 b3lypd3vdz=-287.628938536438 
     C      2.08100000      0.19180000      3.00120000   -0.0483   57.6381
     C      2.64120000     -0.80650000      2.18810000   -0.0554   55.8320
     N      3.11920000     -0.50300000     -1.99710000   -0.1362  155.6458
     C      3.96600000      0.65520000     -1.66450000    0.0456  162.9731
     C      1.94450000     -0.78610000     -1.39400000    0.1899   34.9869
     O      1.25770000      0.07870000     -0.82990000   -0.2822 -122.3064
     H      3.50920000     -0.57500000      1.56880000    0.0204   25.5143
     H      2.49250000      1.21150000      2.97110000    0.0285   24.9686
     H      1.22090000     -0.08240000      3.62970000    0.0291   25.0426
     H      2.23470000     -1.82840000      2.16590000    0.0241   25.2165
     H      3.66780000     -1.30950000     -2.29190000    0.0843   27.7972
     H      3.89510000      0.83610000     -0.58100000    0.0412   28.2207
     H      3.68100000      1.60630000     -2.13800000    0.0496   28.5158
     H      5.01370000      0.41680000     -1.90020000    0.0264   29.1281
     H      1.63630000     -1.84080000     -1.44490000   -0.0170   23.3245
