9
chgs=0 nmr=1 alpha=31.58 b3lypd3vdz=-209.058130734846 
     N      0.09590000      1.69900000      1.09290000   -0.2250  260.7547
     C     -1.35040000      1.82310000      1.05140000    0.1132  143.3126
     C     -1.91270000      0.47570000      1.51600000    0.1450   -9.1082
     O     -1.83470000     -0.51030000      0.76680000   -0.2262 -366.7085
     H      0.50170000      0.84260000      0.71010000    0.0926   31.4499
     H     -1.61820000      2.64140000      1.72800000    0.0088   28.1744
     H      0.69480000      2.44590000      1.38170000    0.0823   31.6189
     H     -1.73350000      2.04110000      0.04360000    0.0187   28.1339
     H     -2.39240000      0.39280000      2.50240000   -0.0092   21.1297
