17
chgs=0 nmr=1 alpha=60.55 b3lypd3vdz=-343.006115882629 
     N      0.29000000     -2.47520000     -0.72790000   -0.1617  249.5054
     C      1.51630000     -2.25140000     -1.46470000   -0.0171  130.9471
     C      1.94450000     -0.78610000     -1.39400000    0.1110   22.9818
     O      1.25770000      0.07870000     -0.82990000   -0.2690  -83.6969
     C      1.36760000     -2.75080000     -2.94330000    0.0210  153.4293
     C      1.41510000     -4.27320000     -3.04150000   -0.0021  176.1870
     N      3.11920000     -0.50300000     -1.99710000   -0.0411  174.3754
     H     -0.46940000     -1.80640000     -0.84560000    0.0863   30.7328
     H      2.30700000     -2.84320000     -0.97730000    0.0015   28.9028
     H      2.19480000     -2.32230000     -3.53340000   -0.0212   29.9096
     H      1.34630000     -4.57280000     -4.09850000    0.0155   30.2564
     H      2.34810000     -4.66960000     -2.61180000    0.0087   30.8749
     H      0.56830000     -4.72120000     -2.50170000    0.0116   29.9701
     H      3.66780000     -1.30950000     -2.29190000    0.0858   27.8862
     H      0.13210000     -3.33170000     -0.23650000    0.0739   30.6349
     H      0.44400000     -2.35480000     -3.39070000    0.0048   30.3995
     H      3.69420000      0.28340000     -1.77130000    0.0919   27.7931
