15
chgs=0 nmr=1 alpha=56.79 b3lypd3vdz=-287.640688632027 
     C      5.96040000     -2.19040000     -2.23880000   -0.0277   67.3139
     C      5.43980000      0.31980000     -1.99600000    0.0452  172.4800
     C      5.83470000     -1.03550000     -1.49250000   -0.1157   44.6999
     C      4.42820000      3.44170000      0.90960000    0.1721   36.7531
     O      4.96590000      2.35460000      0.66000000   -0.2772 -106.9546
     N      3.18890000      3.51260000      1.46050000   -0.0717  163.2758
     H      5.91250000     -2.32370000     -3.31810000   -0.0011   25.7531
     H      5.58910000      0.39330000     -3.08410000    0.0099   29.7459
     H      6.04570000      1.11050000     -1.53420000    0.0400   29.3331
     H      6.15540000     -3.04570000     -1.57510000    0.0060   26.0765
     H      4.39210000      0.55820000     -1.76030000    0.0347   29.7076
     H      5.98240000     -1.32830000     -0.44250000   -0.0099   24.6977
     H      2.70330000      4.40390000      1.49810000    0.0962   27.4485
     H      4.93670000      4.38870000      0.67620000   -0.0009   23.2338
     H      2.62700000      2.69190000      1.56460000    0.1002   27.4831
