20
b3lypd3vdz=-365.196735545205 
     C     -1.91270000      0.47570000      1.51600000
     O     -1.83470000     -0.51030000      0.76680000
     N      0.29000000     -2.47520000     -0.72790000
     C      1.51630000     -2.25140000     -1.46470000
     C     -2.83870000     -1.09330000     -3.13790000
     O     -1.71160000     -0.46870000     -2.50910000
     C     -3.77040000     -0.02030000     -3.68410000
     H     -1.50900000      1.44310000      1.18240000
     H     -2.39240000      0.39280000      2.50240000
     H     -0.46940000     -1.80640000     -0.84560000
     H      2.30700000     -2.84320000     -0.97730000
     H      0.13210000     -3.33170000     -0.23650000
     H      1.82450000     -1.19670000     -1.41380000
     H      1.41200000     -2.60180000     -2.50220000
     H     -2.49380000     -1.73900000     -3.96220000
     H     -0.90150000     -0.86780000     -2.89010000
     H     -3.25600000      0.55400000     -4.46900000
     H     -4.68470000     -0.46680000     -4.10730000
     H     -4.05240000      0.68150000     -2.88650000
     H     -3.34220000     -1.75290000     -2.41580000
