18
chgs=0 nmr=1 alpha=66.07 b3lypd3vdz=-326.934844765543 
     C      2.64120000     -0.80650000      2.18810000   -0.0696   63.6022
     C      2.12680000     -2.09980000      2.16000000   -0.0566   53.5296
     C     -1.36200000     -4.02470000      0.28750000    0.0145  167.7505
     C      0.07660000     -3.63300000     -0.06370000    0.0837   27.9885
     O      0.98870000     -4.40750000      0.25670000   -0.3030  -66.4053
     N      0.29000000     -2.47520000     -0.72790000   -0.1451  153.5191
     C      1.51630000     -2.25140000     -1.46470000    0.0566  165.3303
     H      3.50920000     -0.57500000      1.56880000    0.0193   25.5034
     H      2.57640000     -2.86320000      1.52270000    0.0492   24.7580
     H      2.20230000     -0.02440000      2.82510000    0.0211   25.4216
     H      1.25750000     -2.35840000      2.78240000    0.0214   25.2665
     H     -1.46800000     -3.96920000      1.37910000    0.0491   29.5218
     H     -1.43760000     -5.08370000     -0.00650000    0.0562   29.3663
     H     -0.46940000     -1.80640000     -0.84560000    0.0835   27.2177
     H      2.30700000     -2.84320000     -0.97730000    0.0557   27.2045
     H     -2.15720000     -3.41840000     -0.17080000    0.0067   30.2168
     H      1.82450000     -1.19670000     -1.41380000    0.0264   29.2058
     H      1.41200000     -2.60180000     -2.50220000    0.0308   29.0785
