12
chgs=0 nmr=1 alpha=36.67 b3lypd3vdz=-285.473561803989 
     N      3.18890000      3.51260000      1.46050000   -0.2303  259.2195
     C      2.37390000      2.32220000      1.61150000    0.0493  162.3637
     C      1.57950000      4.49420000     -1.45790000    0.2316   37.8022
     O      0.32590000      4.42390000     -0.96490000   -0.1791  133.0176
     O      2.47210000      5.11220000     -0.91980000   -0.2366 -113.1717
     H      2.70330000      4.40390000      1.49810000    0.0725   31.5185
     H      2.62670000      1.62560000      0.80080000    0.0088   28.7569
     H      4.10140000      3.46040000      1.05490000    0.0763   32.0284
     H      1.31330000      2.59870000      1.51820000    0.0021   29.2156
     H      2.56610000      1.80640000      2.56390000    0.0120   28.5162
     H      0.33700000      4.72390000     -0.02600000    0.1653   25.8167
     H      1.70330000      3.85730000     -2.34620000    0.0282   23.6434
