16
chgs=0 nmr=1 alpha=58.12 b3lypd3vdz=-362.827407344526 
     C      1.94450000     -0.78610000     -1.39400000    0.1785   -4.0216
     O      1.25770000      0.07870000     -0.82990000   -0.2007 -487.3151
     C     -1.91270000      0.47570000      1.51600000    0.1792   35.4986
     O     -1.83470000     -0.51030000      0.76680000   -0.2948 -116.3699
     N     -2.50100000      0.37410000      2.72560000   -0.1266  125.9097
     C     -3.88230000      0.82070000      4.57630000   -0.0491  169.5098
     C     -2.78870000      1.44460000      3.69700000    0.0714  155.7834
     H      1.63630000     -1.84080000     -1.44490000    0.0164   21.3416
     H      2.90130000     -0.55550000     -1.88520000    0.0074   21.2857
     H     -4.86980000      0.99170000      4.11760000    0.0396   29.5558
     H     -3.89940000      1.24920000      5.58850000    0.0278   29.9064
     H     -1.88090000      1.68360000      4.27730000    0.0282   28.2597
     H     -3.13200000      2.35020000      3.17990000    0.0308   28.2699
     H     -1.50900000      1.44310000      1.18240000   -0.0107   22.9661
     H     -2.88390000     -0.51070000      2.99120000    0.0789   28.3826
     H     -3.64330000     -0.25290000      4.56270000    0.0238   30.7886
