8
chgs=0 nmr=1 alpha=24.79 b3lypd3vdz=-79.76720348679 
     C      1.51630000     -2.25140000     -1.46470000   -0.0665  181.4530
     C      1.36760000     -2.75080000     -2.94330000   -0.0664  181.4885
     H      2.30700000     -2.84320000     -0.97730000    0.0198   30.3990
     H      2.19480000     -2.32230000     -3.53340000    0.0201   30.3472
     H      0.58470000     -2.42140000     -0.90500000    0.0230   30.3869
     H      1.82450000     -1.19670000     -1.41380000    0.0232   30.4278
     H      0.44400000     -2.35480000     -3.39070000    0.0217   30.4117
     H      1.40180000     -3.84800000     -3.01410000    0.0251   30.4003
