13
chgs=0 nmr=1 alpha=45.85 b3lypd3vdz=-323.582990438875 
     C      1.51630000     -2.25140000     -1.46470000    0.0037  145.2236
     C      1.94450000     -0.78610000     -1.39400000    0.0738   25.5816
     O      1.25770000      0.07870000     -0.82990000   -0.2671 -116.5303
     C      1.36760000     -2.75080000     -2.94330000    0.1362  125.9143
     O      0.17140000     -2.23790000     -3.52280000   -0.2736  281.6187
     N      3.11920000     -0.50300000     -1.99710000   -0.0471  175.6977
     H      2.30700000     -2.84320000     -0.97730000    0.0092   29.5137
     H      2.19480000     -2.32230000     -3.53340000    0.0145   27.4878
     H     -0.55590000     -2.85860000     -3.27480000    0.1481   31.0694
     H      3.66780000     -1.30950000     -2.29190000    0.0823   27.8435
     H      0.58470000     -2.42140000     -0.90500000    0.0202   29.5040
     H      1.40180000     -3.84800000     -3.01410000    0.0057   27.4868
     H      3.69420000      0.28340000     -1.77130000    0.0942   27.8094
