16
chgs=0 nmr=1 alpha=57.9 b3lypd3vdz=-362.844857220028 
     N      3.11920000     -0.50300000     -1.99710000   -0.0516  174.0967
     C      1.51630000     -2.25140000     -1.46470000   -0.0142  167.7409
     C      1.94450000     -0.78610000     -1.39400000    0.0423   28.1693
     O      1.25770000      0.07870000     -0.82990000   -0.2706 -111.6548
     C      2.12680000     -2.09980000      2.16000000   -0.0973   94.8640
     C      1.01760000     -2.42980000      2.95410000    0.0656   32.7215
     O      0.45780000     -3.67340000      2.95140000   -0.1837  201.3852
     H      3.66780000     -1.30950000     -2.29190000    0.0811   27.9233
     H      2.30700000     -2.84320000     -0.97730000    0.0286   29.7487
     H      3.69420000      0.28340000     -1.77130000    0.0932   28.0040
     H      0.58470000     -2.42140000     -0.90500000    0.0470   29.7783
     H      1.41200000     -2.60180000     -2.50220000    0.0417   29.4660
     H      2.57640000     -2.86320000      1.52270000   -0.0044   27.0168
     H      0.82970000     -4.18290000      2.20160000    0.1581   27.5582
     H      2.53330000     -1.07790000      2.18220000    0.0307   26.8254
     H      0.57880000     -1.66260000      3.60900000    0.0335   24.1846
