13
b3lypd3vdz=-323.573100647485 
     N     -4.14050000     -1.27530000     -1.02540000
     C     -5.44150000     -1.47950000     -0.66470000
     O     -6.22450000     -2.15670000     -1.31890000
     C     -1.35040000      1.82310000      1.05140000
     C     -1.91270000      0.47570000      1.51600000
     O     -1.83470000     -0.51030000      0.76680000
     H     -3.49920000     -0.77170000     -0.41380000
     H     -3.73200000     -1.78860000     -1.78020000
     H     -5.81100000     -0.96070000      0.23210000
     H     -1.61820000      2.64140000      1.72800000
     H     -0.25490000      1.72910000      1.08280000
     H     -1.73350000      2.04110000      0.04360000
     H     -2.39240000      0.39280000      2.50240000
