15
chgs=0 nmr=1 alpha=56.33 b3lypd3vdz=-287.601360816482 
     C      6.02880000     -1.42020000     -0.11300000   -0.0861   59.3820
     C      6.04520000     -0.70090000      1.09900000   -0.0536   58.4295
     N      5.62010000      4.82020000     -0.78950000   -0.1668  239.7739
     C      5.13490000      4.75780000      0.58520000    0.0466  139.8509
     C      4.42820000      3.44170000      0.90960000    0.1397  -21.1482
     O      4.96590000      2.35460000      0.66000000   -0.2044 -356.8384
     H      5.87840000      0.37770000      1.10230000    0.0458   23.8261
     H      5.88110000     -1.12740000     -1.16300000    0.0199   24.9175
     H      6.20500000     -2.50590000     -0.09900000    0.0145   25.6144
     H      6.21940000     -1.25390000      2.03380000    0.0218   24.8762
     H      6.12690000      3.95360000     -0.98840000    0.0837   30.3388
     H      4.80970000      4.78470000     -1.41320000    0.0742   31.2928
     H      5.99190000      4.83530000      1.27870000    0.0511   28.5550
     H      4.47090000      5.61460000      0.77610000    0.0204   28.2446
     H      3.42440000      3.49910000      1.35580000   -0.0069   20.8885
