15
chgs=0 nmr=1 alpha=46.06 b3lypd3vdz=-270.622335774833 
     C     -2.83870000     -1.09330000     -3.13790000    0.0979  144.1015
     O     -1.71160000     -0.46870000     -2.50910000   -0.3242  332.4650
     O      0.17140000     -2.23790000     -3.52280000   -0.2822  281.1405
     C      1.51630000     -2.25140000     -1.46470000   -0.0470  169.9442
     C      1.36760000     -2.75080000     -2.94330000    0.1009  130.1637
     H     -2.49380000     -1.73900000     -3.96220000   -0.0037   28.3720
     H     -0.90150000     -0.86780000     -2.89010000    0.1393   28.7224
     H     -3.34220000     -1.75290000     -2.41580000    0.0059   28.1522
     H     -3.51190000     -0.31800000     -3.53260000    0.0239   27.9918
     H     -0.55590000     -2.85860000     -3.27480000    0.1628   30.7617
     H      2.30700000     -2.84320000     -0.97730000    0.0132   30.4962
     H      2.19480000     -2.32230000     -3.53340000    0.0311   27.5044
     H      0.58470000     -2.42140000     -0.90500000    0.0252   30.3272
     H      1.82450000     -1.19670000     -1.41380000    0.0404   29.8016
     H      1.40180000     -3.84800000     -3.01410000    0.0166   27.6768
