18
chgs=0 nmr=1 alpha=62.6 b3lypd3vdz=-272.752516697102 
     C      4.42820000      3.44170000      0.90960000    0.1825   -5.6121
     O      4.96590000      2.35460000      0.66000000   -0.1933 -464.8624
     C      2.64120000     -0.80650000      2.18810000   -0.0642   58.8684
     C      2.12680000     -2.09980000      2.16000000   -0.0589   59.9876
     C      3.96600000      0.65520000     -1.66450000   -0.0803  179.0884
     C      5.43980000      0.31980000     -1.99600000   -0.0636  181.1637
     H      4.93670000      4.38870000      0.67620000    0.0242   21.3326
     H      3.42440000      3.49910000      1.35580000    0.0232   21.3245
     H      3.50920000     -0.57500000      1.56880000    0.0467   24.9815
     H      2.57640000     -2.86320000      1.52270000    0.0265   25.2091
     H      2.20230000     -0.02440000      2.82510000    0.0217   25.1008
     H      1.25750000     -2.35840000      2.78240000    0.0254   25.2650
     H      3.89510000      0.83610000     -0.58100000    0.0412   29.8140
     H      5.58910000      0.39330000     -3.08410000    0.0116   30.5103
     H      6.04570000      1.11050000     -1.53420000    0.0199   29.9874
     H      3.33350000     -0.20980000     -1.91290000    0.0136   30.4277
     H      3.68100000      1.60630000     -2.13800000    0.0057   31.0569
     H      5.72960000     -0.67490000     -1.62650000    0.0181   30.3759
