11
chgs=0 nmr=1 alpha=37.52 b3lypd3vdz=-264.427757680668 
     N     -2.40610000     -3.22870000     -0.31420000   -0.2204  255.8736
     C     -1.36200000     -4.02470000      0.28750000    0.0983  144.9001
     C      0.07660000     -3.63300000     -0.06370000    0.0501   24.1922
     O      0.98870000     -4.40750000      0.25670000   -0.2884  -68.7047
     N      0.29000000     -2.47520000     -0.72790000   -0.0578  174.9156
     H     -3.05840000     -2.77050000      0.31520000    0.0866   30.7146
     H     -1.46800000     -3.96920000      1.37910000    0.0460   28.3660
     H     -1.43760000     -5.08370000     -0.00650000    0.0377   27.8029
     H     -0.46940000     -1.80640000     -0.84560000    0.0759   25.9188
     H     -2.51000000     -3.12050000     -1.30290000    0.0781   31.6118
     H      1.13690000     -2.32060000     -1.23670000    0.0940   27.8422
