17
chgs=0 nmr=1 alpha=61.3 b3lypd3vdz=-343.005003055235 
     C     -5.95950000     -0.75220000      0.59260000    0.0100  137.2207
     C     -5.44150000     -1.47950000     -0.66470000    0.1382   22.6976
     O     -6.22450000     -2.15670000     -1.31890000   -0.2860  -33.0531
     C     -6.72760000      0.54920000      0.23110000    0.0287  167.3534
     N     -4.14050000     -1.27530000     -1.02540000   -0.1546  163.1536
     C     -3.54700000     -2.02120000     -2.12210000    0.0527  167.7290
     N     -4.93360000     -0.42760000      1.58080000   -0.1911  236.2254
     H     -6.64650000     -1.48990000      1.03030000    0.0172   27.9747
     H     -7.60780000      0.64120000      0.88650000    0.0343   29.3441
     H     -6.07680000      1.40620000      0.44970000    0.0055   31.2777
     H     -3.49920000     -0.77170000     -0.41380000    0.0603   25.9749
     H     -4.37040000     -2.54620000     -2.62940000    0.0503   27.1799
     H     -4.60560000      0.53540000      1.61300000    0.0782   31.3041
     H     -7.04570000      0.63100000     -0.81870000    0.0354   29.9451
     H     -2.83000000     -2.78180000     -1.77940000    0.0225   29.4242
     H     -3.04350000     -1.36160000     -2.84420000    0.0226   29.3912
     H     -4.37810000     -1.13950000      2.01050000    0.0757   31.4647
