13
chgs=0 nmr=1 alpha=46.19 b3lypd3vdz=-323.515071878881 
     C     -1.91270000      0.47570000      1.51600000    0.1841   -6.3809
     O     -1.83470000     -0.51030000      0.76680000   -0.2079 -481.7387
     N      0.29000000     -2.47520000     -0.72790000   -0.2152  258.8447
     C      1.51630000     -2.25140000     -1.46470000    0.0498  135.9035
     C      1.94450000     -0.78610000     -1.39400000    0.1561  -11.2608
     O      1.25770000      0.07870000     -0.82990000   -0.2140 -362.8531
     H     -1.50900000      1.44310000      1.18240000    0.0258   21.0718
     H     -2.39240000      0.39280000      2.50240000    0.0157   21.1517
     H     -0.46940000     -1.80640000     -0.84560000    0.0954   29.6552
     H      2.30700000     -2.84320000     -0.97730000    0.0305   27.9681
     H      0.13210000     -3.33170000     -0.23650000    0.0730   31.5487
     H      1.41200000     -2.60180000     -2.50220000    0.0232   27.1300
     H      2.90130000     -0.55550000     -1.88520000   -0.0167   21.4457
