16
chgs=0 nmr=1 alpha=59.58 b3lypd3vdz=-271.573991606502 
     C      2.12680000     -2.09980000      2.16000000   -0.0564   57.9654
     C      1.01760000     -2.42980000      2.95410000   -0.0650   57.0432
     C      1.51630000     -2.25140000     -1.46470000   -0.0482  148.7225
     C      1.94450000     -0.78610000     -1.39400000    0.1547  -12.6029
     O      1.25770000      0.07870000     -0.82990000   -0.2129 -388.4564
     C      1.36760000     -2.75080000     -2.94330000   -0.0403  181.9258
     H      2.57640000     -2.86320000      1.52270000    0.0260   25.3896
     H      2.53330000     -1.07790000      2.18220000    0.0370   25.1943
     H      0.57880000     -1.66260000      3.60900000    0.0329   25.2023
     H      0.56610000     -3.43290000      2.95190000    0.0283   25.1159
     H      2.30700000     -2.84320000     -0.97730000    0.0321   29.3967
     H      2.19480000     -2.32230000     -3.53340000    0.0197   30.1756
     H      0.58470000     -2.42140000     -0.90500000    0.0312   29.1400
     H      2.90130000     -0.55550000     -1.88520000   -0.0106   21.4063
     H      0.44400000     -2.35480000     -3.39070000    0.0393   30.5193
     H      1.40180000     -3.84800000     -3.01410000    0.0322   30.2060
