8
chgs=0 nmr=1 alpha=24.64 b3lypd3vdz=-79.768590474954 
     C     -1.35040000      1.82310000      1.05140000   -0.0582  181.9789
     C     -1.88600000      2.12790000     -0.35750000   -0.0628  181.4070
     H     -1.61820000      2.64140000      1.72800000    0.0212   30.4890
     H     -1.37820000      3.00360000     -0.78400000    0.0197   30.4501
     H     -1.69840000      1.28000000     -1.04010000    0.0193   30.3648
     H     -0.25490000      1.72910000      1.08280000    0.0178   30.5237
     H     -1.75410000      0.85570000      1.38500000    0.0211   30.3664
     H     -2.96960000      2.31430000     -0.32560000    0.0220   30.4271
