5
chgs=0 nmr=1 alpha=13.41 b3lypd3vdz=-40.482074577646 
     C      2.37390000      2.32220000      1.61150000   -0.1256  196.5750
     H      2.62670000      1.62560000      0.80080000    0.0285   31.1330
     H      2.99190000      3.22490000      1.49700000    0.0323   31.0263
     H      1.31330000      2.59870000      1.51820000    0.0317   31.0410
     H      2.56610000      1.80640000      2.56390000    0.0332   31.0019
