14
chgs=0 nmr=1 alpha=48.18 b3lypd3vdz=-398.756857516555 
     C      1.57950000      4.49420000     -1.45790000    0.2207   38.1022
     O      0.32590000      4.42390000     -0.96490000   -0.1890  106.0125
     O      2.47210000      5.11220000     -0.91980000   -0.2417 -113.8009
     N      3.18890000      3.51260000      1.46050000   -0.2128  260.0006
     C      2.37390000      2.32220000      1.61150000    0.0679  137.1018
     C      0.90310000      2.70560000      1.48210000    0.1730  -22.6627
     O      0.49730000      3.84920000      1.74780000   -0.2470 -317.1153
     H      0.33700000      4.72390000     -0.02600000    0.1706   25.7030
     H      1.70330000      3.85730000     -2.34620000    0.0168   23.9305
     H      2.70330000      4.40390000      1.49810000    0.0914   29.8547
     H      2.62670000      1.62560000      0.80080000    0.0195   27.5643
     H      4.10140000      3.46040000      1.05490000    0.0799   32.2121
     H      2.56610000      1.80640000      2.56390000    0.0418   27.4430
     H      0.24430000      1.88400000      1.16440000    0.0090   20.9378
