14
chgs=0 nmr=1 alpha=45.9 b3lypd3vdz=-249.536333593981 
     C     -1.36200000     -4.02470000      0.28750000    0.0644  163.0224
     N     -2.40610000     -3.22870000     -0.31420000   -0.2208  261.8653
     C     -1.35040000      1.82310000      1.05140000   -0.0307  163.0149
     C     -1.91270000      0.47570000      1.51600000    0.1078  -12.5869
     O     -1.83470000     -0.51030000      0.76680000   -0.2046 -422.8375
     H     -1.46800000     -3.96920000      1.37910000    0.0128   29.0903
     H     -1.43760000     -5.08370000     -0.00650000   -0.0075   28.5864
     H     -3.05840000     -2.77050000      0.31520000    0.0751   30.9756
     H     -0.32890000     -3.74340000      0.03530000   -0.0012   28.7634
     H     -2.51000000     -3.12050000     -1.30290000    0.0665   32.0279
     H     -1.61820000      2.64140000      1.72800000    0.0206   29.4519
     H     -0.25490000      1.72910000      1.08280000    0.0620   29.5562
     H     -1.73350000      2.04110000      0.04360000    0.0597   29.4078
     H     -2.39240000      0.39280000      2.50240000   -0.0041   20.9326
