9
chgs=0 nmr=1 alpha=31.99 b3lypd3vdz=-209.060438256383 
     N      2.23970000      2.31020000     -2.25620000   -0.2175  256.2197
     C      1.75110000      3.61130000     -2.68940000    0.0921  141.4679
     C      1.57950000      4.49420000     -1.45790000    0.1463    0.6288
     O      2.47210000      5.11220000     -0.91980000   -0.1987 -302.8914
     H      1.62560000      1.68770000     -1.72520000    0.0873   30.9629
     H      2.50890000      4.05600000     -3.34560000    0.0285   28.6648
     H      0.79420000      3.49920000     -3.21900000    0.0105   28.1559
     H      3.21050000      2.07650000     -2.30990000    0.0883   31.0791
     H      0.55720000      4.43690000     -1.05590000   -0.0366   21.6023
