16
chgs=0 nmr=1 alpha=76.77 b3lypd3vdz=-234.462619191729 
     C      6.02880000     -1.42020000     -0.11300000    0.0045   42.7661
     C      6.04520000     -0.70090000      1.09900000   -0.0184   57.2735
     C      6.26560000     -1.40060000      2.28170000    0.0117   67.4068
     C      3.96600000      0.65520000     -1.66450000   -0.0103  171.4195
     C      5.43980000      0.31980000     -1.99600000    0.0268  167.1449
     C      5.83470000     -1.03550000     -1.49250000   -0.0765   42.6501
     H      5.87840000      0.37770000      1.10230000   -0.0196   24.2729
     H      6.27140000     -0.86200000      3.23210000    0.0133   26.1023
     H      3.89510000      0.83610000     -0.58100000    0.0203   30.1971
     H      5.58910000      0.39330000     -3.08410000    0.0131   29.4726
     H      6.04570000      1.11050000     -1.53420000    0.0178   28.8323
     H      6.20500000     -2.50590000     -0.09900000   -0.0273   24.8307
     H      6.42710000     -2.48870000      2.28190000    0.0198   25.7306
     H      3.33350000     -0.20980000     -1.91290000    0.0243   30.3205
     H      3.68100000      1.60630000     -2.13800000    0.0149   30.1891
     H      5.93480000     -1.95560000     -2.08700000   -0.0143   24.9821
