10
chgs=0 nmr=1 alpha=35.81 b3lypd3vdz=-193.04120742938 
     C      3.96600000      0.65520000     -1.66450000   -0.0912  150.2095
     C      3.56570000      1.99100000     -2.32950000    0.1643   -8.1035
     O      4.40780000      2.72380000     -2.83520000   -0.2004 -352.0970
     C      5.43980000      0.31980000     -1.99600000   -0.0131  180.3302
     H      3.89510000      0.83610000     -0.58100000    0.0417   29.5669
     H      5.58910000      0.39330000     -3.08410000    0.0304   30.2232
     H      6.04570000      1.11050000     -1.53420000    0.0312   30.0245
     H      3.33350000     -0.20980000     -1.91290000    0.0310   28.8672
     H      2.49780000      2.24810000     -2.27050000   -0.0082   21.1559
     H      5.72960000     -0.67490000     -1.62650000    0.0144   30.5675
