15
chgs=0 nmr=1 alpha=56.27 b3lypd3vdz=-287.631975079559 
     C      6.02880000     -1.42020000     -0.11300000   -0.0885   59.8445
     C      6.04520000     -0.70090000      1.09900000   -0.0564   57.6522
     C      4.42820000      3.44170000      0.90960000    0.2063   35.5551
     O      4.96590000      2.35460000      0.66000000   -0.2753  -92.8821
     N      3.18890000      3.51260000      1.46050000   -0.1458  150.4003
     C      2.37390000      2.32220000      1.61150000    0.0544  165.8385
     H      5.87840000      0.37770000      1.10230000    0.0540   23.9051
     H      5.88110000     -1.12740000     -1.16300000    0.0204   24.9741
     H      6.20500000     -2.50590000     -0.09900000    0.0102   25.6938
     H      6.21940000     -1.25390000      2.03380000    0.0171   24.9120
     H      2.70330000      4.40390000      1.49810000    0.0870   27.1348
     H      2.62670000      1.62560000      0.80080000    0.0519   27.7496
     H      4.93670000      4.38870000      0.67620000   -0.0041   23.1458
     H      1.31330000      2.59870000      1.51820000    0.0243   29.1903
     H      2.56610000      1.80640000      2.56390000    0.0446   28.8539
