15
chgs=0 nmr=1 alpha=53.45 b3lypd3vdz=-378.909242861809 
     N      3.11920000     -0.50300000     -1.99710000   -0.1368  156.3112
     C      3.96600000      0.65520000     -1.66450000    0.0518  163.1717
     C      1.94450000     -0.78610000     -1.39400000    0.1894   35.0085
     O      1.25770000      0.07870000     -0.82990000   -0.2804 -121.3680
     N     -2.50100000      0.37410000      2.72560000   -0.0657  170.6729
     C     -1.91270000      0.47570000      1.51600000    0.1756   39.3469
     O     -1.83470000     -0.51030000      0.76680000   -0.2839 -115.7751
     H      3.66780000     -1.30950000     -2.29190000    0.0830   27.8424
     H      3.89510000      0.83610000     -0.58100000    0.0358   28.3743
     H      3.68100000      1.60630000     -2.13800000    0.0472   28.5774
     H      5.01370000      0.41680000     -1.90020000    0.0245   29.1810
     H      1.63630000     -1.84080000     -1.44490000   -0.0127   23.2466
     H     -2.88390000     -0.51070000      2.99120000    0.0889   27.9425
     H     -2.69620000      1.10040000      3.38470000    0.0815   27.6188
     H     -1.50900000      1.44310000      1.18240000    0.0019   23.0097
