6
chgs=0 nmr=1 alpha=16.47 b3lypd3vdz=-115.657953180946 
     O      0.17140000     -2.23790000     -3.52280000   -0.2975  319.0557
     C      1.36760000     -2.75080000     -2.94330000    0.0991  140.9205
     H     -0.55590000     -2.85860000     -3.27480000    0.1451   31.8304
     H      2.19480000     -2.32230000     -3.53340000    0.0305   27.8184
     H      1.47190000     -2.40040000     -1.90580000    0.0119   27.7025
     H      1.40180000     -3.84800000     -3.01410000    0.0109   27.8427
