18
chgs=0 nmr=1 alpha=60.47 b3lypd3vdz=-363.994469958419 
     N      3.18890000      3.51260000      1.46050000   -0.2368  261.3839
     C      2.37390000      2.32220000      1.61150000    0.0454  162.9769
     C      1.57950000      4.49420000     -1.45790000    0.1827    5.4302
     O      2.47210000      5.11220000     -0.91980000   -0.1890 -407.2259
     C      1.51630000     -2.25140000     -1.46470000   -0.0389  159.0237
     C      1.94450000     -0.78610000     -1.39400000    0.1274   -9.9412
     O      1.25770000      0.07870000     -0.82990000   -0.2102 -382.4151
     H      2.70330000      4.40390000      1.49810000    0.0796   31.5935
     H      2.62670000      1.62560000      0.80080000    0.0103   28.8479
     H      4.10140000      3.46040000      1.05490000    0.0688   32.4078
     H      1.31330000      2.59870000      1.51820000    0.0129   29.1790
     H      2.56610000      1.80640000      2.56390000    0.0006   28.8002
     H      1.70330000      3.85730000     -2.34620000    0.0045   21.5349
     H      0.55720000      4.43690000     -1.05590000    0.0029   21.5477
     H      2.30700000     -2.84320000     -0.97730000    0.0468   29.4710
     H      0.58470000     -2.42140000     -0.90500000    0.0453   29.3892
     H      1.41200000     -2.60180000     -2.50220000    0.0493   29.2452
     H      2.90130000     -0.55550000     -1.88520000   -0.0017   21.2984
