18
chgs=0 nmr=1 alpha=70.89 b3lypd3vdz=-326.877219314925 
     C      4.42820000      3.44170000      0.90960000    0.1825   -5.2478
     O      4.96590000      2.35460000      0.66000000   -0.1898 -469.8431
     C      5.96040000     -2.19040000     -2.23880000   -0.0068   58.8395
     N      6.20610000     -3.26820000     -1.40250000   -0.0749  202.7928
     C      3.96600000      0.65520000     -1.66450000   -0.0216  167.8156
     C      5.43980000      0.31980000     -1.99600000    0.0426  167.0261
     C      5.83470000     -1.03550000     -1.49250000   -0.0644   82.1133
     H      4.93670000      4.38870000      0.67620000    0.0225   21.3263
     H      3.42440000      3.49910000      1.35580000    0.0212   21.3100
     H      5.91250000     -2.32370000     -3.31810000   -0.0128   25.1741
     H      6.40150000     -4.21130000     -1.70730000    0.0785   29.4516
     H      3.89510000      0.83610000     -0.58100000    0.0238   29.8501
     H      5.58910000      0.39330000     -3.08410000   -0.0131   29.7321
     H      6.04570000      1.11050000     -1.53420000    0.0035   29.2664
     H      6.24290000     -2.94790000     -0.45590000    0.0711   27.9189
     H      3.33350000     -0.20980000     -1.91290000    0.0051   30.8708
     H      3.68100000      1.60630000     -2.13800000   -0.0122   30.8989
     H      5.98240000     -1.32830000     -0.44250000   -0.0551   26.0833
