15
chgs=0 nmr=1 alpha=54.58 b3lypd3vdz=-287.679742625823 
     C     -1.35040000      1.82310000      1.05140000    0.0199  170.3924
     C     -1.91270000      0.47570000      1.51600000    0.0870   29.8173
     O     -1.83470000     -0.51030000      0.76680000   -0.3037  -91.1526
     N     -2.50100000      0.37410000      2.72560000   -0.1456  124.5492
     C     -3.06370000     -0.92600000      3.11590000    0.0713  153.9906
     C     -3.54840000     -0.67920000      4.55730000   -0.0492  171.5031
     H     -1.61820000      2.64140000      1.72800000    0.0009   30.3847
     H     -2.29450000     -1.70630000      3.05990000    0.0317   28.2879
     H     -4.39500000     -1.32650000      4.82530000    0.0291   29.8621
     H     -2.72210000     -0.89730000      5.25360000    0.0354   29.6365
     H     -0.25490000      1.72910000      1.08280000    0.0546   29.5654
     H     -1.73350000      2.04110000      0.04360000    0.0545   29.5550
     H     -2.69620000      1.10040000      3.38470000    0.0744   27.6929
     H     -3.86060000     -1.26200000      2.43610000    0.0277   28.4722
     H     -3.78740000      0.39440000      4.57090000    0.0120   30.9537
