11
chgs=0 nmr=1 alpha=37.58 b3lypd3vdz=-264.429731168922 
     C     -5.95950000     -0.75220000      0.59260000    0.0946  142.9557
     C     -5.44150000     -1.47950000     -0.66470000    0.0541   26.2595
     O     -6.22450000     -2.15670000     -1.31890000   -0.2707  -65.5372
     N     -4.14050000     -1.27530000     -1.02540000   -0.0678  172.3124
     N     -4.93360000     -0.42760000      1.58080000   -0.2235  251.9060
     H     -6.64650000     -1.48990000      1.03030000    0.0381   28.0453
     H     -3.49920000     -0.77170000     -0.41380000    0.0701   25.9024
     H     -4.60560000      0.53540000      1.61300000    0.0846   30.6955
     H     -6.50330000      0.16910000      0.33670000    0.0502   28.2128
     H     -3.73200000     -1.78860000     -1.78020000    0.0911   27.9780
     H     -4.37810000     -1.13950000      2.01050000    0.0792   31.5270
