16
chgs=0 nmr=1 alpha=52.88 b3lypd3vdz=-399.931422165 
     C     -1.91270000      0.47570000      1.51600000    0.1846   -7.1942
     O     -1.83470000     -0.51030000      0.76680000   -0.2088 -478.4044
     C     -2.83870000     -1.09330000     -3.13790000    0.0954  142.3857
     O     -1.71160000     -0.46870000     -2.50910000   -0.2861  328.0540
     C      0.07660000     -3.63300000     -0.06370000    0.1575   36.3168
     O      0.98870000     -4.40750000      0.25670000   -0.2923 -116.8332
     N      0.29000000     -2.47520000     -0.72790000   -0.0959  167.1246
     H     -1.50900000      1.44310000      1.18240000    0.0240   21.2629
     H     -2.39240000      0.39280000      2.50240000    0.0235   21.2171
     H     -2.49380000     -1.73900000     -3.96220000    0.0139   27.8403
     H     -0.90150000     -0.86780000     -2.89010000    0.1438   31.7797
     H     -3.34220000     -1.75290000     -2.41580000    0.0276   27.6228
     H     -3.51190000     -0.31800000     -3.53260000    0.0326   27.8055
     H     -0.46940000     -1.80640000     -0.84560000    0.1006   26.0631
     H     -0.95650000     -3.91430000      0.18850000   -0.0083   22.9149
     H      1.13690000     -2.32060000     -1.23670000    0.0879   27.8652
