14
chgs=0 nmr=1 alpha=60.5 b3lypd3vdz=-270.334580665369 
     C      4.42820000      3.44170000      0.90960000    0.1852   -6.4435
     O      4.96590000      2.35460000      0.66000000   -0.1909 -467.3982
     C      6.04520000     -0.70090000      1.09900000    0.0044   68.3500
     C      6.47650000     -3.53090000      1.09720000    0.0048   74.6505
     C      6.26560000     -1.40060000      2.28170000   -0.0367   57.3615
     C      6.47310000     -2.79860000      2.28190000   -0.0280   54.5875
     H      4.93670000      4.38870000      0.67620000    0.0211   21.2834
     H      3.42440000      3.49910000      1.35580000    0.0226   21.2785
     H      5.87840000      0.37770000      1.10230000    0.0297   24.3376
     H      6.64460000     -4.61050000      1.09690000    0.0140   26.0131
     H      6.27140000     -0.86200000      3.23210000   -0.0294   25.1894
     H      6.63660000     -3.31610000      3.23010000   -0.0259   25.1053
     H      6.03240000     -1.26230000      0.15310000    0.0116   23.7064
     H      6.30420000     -2.97780000      0.16210000    0.0175   23.9406
