8
chgs=0 nmr=1 alpha=24.39 b3lypd3vdz=-79.762015488341 
     C     -3.06370000     -0.92600000      3.11590000   -0.0633  182.7701
     C     -3.54840000     -0.67920000      4.55730000   -0.0587  182.5281
     H     -2.29450000     -1.70630000      3.05990000    0.0165   30.5147
     H     -4.39500000     -1.32650000      4.82530000    0.0216   30.3389
     H     -2.72210000     -0.89730000      5.25360000    0.0209   30.2268
     H     -2.64250000      0.04720000      2.82370000    0.0205   30.0620
     H     -3.86060000     -1.26200000      2.43610000    0.0197   30.3779
     H     -3.78740000      0.39440000      4.57090000    0.0229   30.0085
