17
chgs=0 nmr=1 alpha=61.24 b3lypd3vdz=-342.97986807983 
     N      0.09590000      1.69900000      1.09290000   -0.2284  259.3183
     C     -1.35040000      1.82310000      1.05140000    0.1353  149.6553
     C     -1.91270000      0.47570000      1.51600000    0.1311   26.9549
     O     -1.83470000     -0.51030000      0.76680000   -0.3154  -59.4952
     N     -2.50100000      0.37410000      2.72560000   -0.2571  158.0400
     C     -3.06370000     -0.92600000      3.11590000    0.0857  146.5641
     C     -2.78870000      1.44460000      3.69700000    0.0719  146.7522
     H      0.50170000      0.84260000      0.71010000    0.0903   31.1878
     H     -1.61820000      2.64140000      1.72800000   -0.0082   28.0913
     H     -2.29450000     -1.70630000      3.05990000    0.0406   27.9410
     H     -1.88090000      1.68360000      4.27730000    0.0380   27.7425
     H     -3.13200000      2.35020000      3.17990000    0.0449   27.9713
     H      0.69480000      2.44590000      1.38170000    0.0738   31.6286
     H     -1.73350000      2.04110000      0.04360000    0.0151   28.1347
     H     -3.86060000     -1.26200000      2.43610000    0.0357   27.9738
     H     -3.40980000     -0.74980000      4.14510000    0.0115   29.0374
     H     -3.57200000      0.99770000      4.32680000    0.0352   28.2688
