14
chgs=0 nmr=1 alpha=55.53 b3lypd3vdz=-361.665043066822 
     C      0.90310000      2.70560000      1.48210000    0.2068   37.7971
     O      0.49730000      3.84920000      1.74780000   -0.2904  -91.9805
     N      0.09590000      1.69900000      1.09290000   -0.1195  134.5689
     C     -1.35040000      1.82310000      1.05140000   -0.0005  140.9528
     C     -1.91270000      0.47570000      1.51600000    0.1870  -16.3919
     O     -1.83470000     -0.51030000      0.76680000   -0.2141 -376.5498
     C     -1.88600000      2.12790000     -0.35750000    0.0347  172.1302
     H      0.50170000      0.84260000      0.71010000    0.0947   27.0996
     H     -1.61820000      2.64140000      1.72800000    0.0193   26.6469
     H     -1.37820000      3.00360000     -0.78400000    0.0328   30.2299
     H     -1.69840000      1.28000000     -1.04010000    0.0291   29.6983
     H      1.96370000      2.42910000      1.57540000   -0.0069   23.4281
     H     -2.39240000      0.39280000      2.50240000    0.0035   20.9028
     H     -2.96960000      2.31430000     -0.32560000    0.0236   30.5811
