21
chgs=0 nmr=1 alpha=82.16 b3lypd3vdz=-274.924052476101 
     C     -3.06370000     -0.92600000      3.11590000   -0.0192  162.9691
     C     -3.54840000     -0.67920000      4.55730000   -0.0665  173.4206
     C     -3.88230000      0.82070000      4.57630000   -0.0203  162.7048
     C      2.08100000      0.19180000      3.00120000   -0.0273   53.8029
     C      2.64120000     -0.80650000      2.18810000    0.0012   68.1622
     C      0.98480000     -0.15760000      3.80220000   -0.0231   56.4859
     C      0.45840000     -1.45210000      3.78880000   -0.0018   71.4272
     H     -2.29450000     -1.70630000      3.05990000    0.0066   29.8475
     H     -4.39500000     -1.32650000      4.82530000    0.0068   30.2333
     H     -2.72210000     -0.89730000      5.25360000    0.0099   30.1362
     H     -4.86980000      0.99170000      4.11760000    0.0205   29.7459
     H     -3.89940000      1.24920000      5.58850000    0.0077   29.8655
     H     -2.64250000      0.04720000      2.82370000    0.0140   30.4427
     H     -3.86060000     -1.26200000      2.43610000    0.0153   29.7813
     H     -3.09900000      1.26760000      3.94650000    0.0183   30.3713
     H      3.50920000     -0.57500000      1.56880000    0.0150   26.1015
     H      0.53070000      0.59650000      4.45220000   -0.0190   25.0722
     H     -0.38490000     -1.72720000      4.42550000    0.0291   25.9782
     H      2.49250000      1.21150000      2.97110000   -0.0131   24.7069
     H      2.23470000     -1.82840000      2.16590000    0.0249   23.5115
     H      0.89720000     -2.21930000      3.13390000    0.0210   23.8149
