18
chgs=0 nmr=1 alpha=76.04 b3lypd3vdz=-289.733930308176 
     C      2.64120000     -0.80650000      2.18810000   -0.0678   58.6837
     C      2.12680000     -2.09980000      2.16000000   -0.0598   59.2838
     C      6.02880000     -1.42020000     -0.11300000    0.0186   41.5229
     N      6.20610000     -3.26820000     -1.40250000   -0.0664  182.2286
     C      6.25690000     -2.82580000     -0.09490000   -0.1069   46.9500
     C      6.04520000     -0.70090000      1.09900000    0.0252   71.0308
     C      6.47650000     -3.53090000      1.09720000   -0.0319  120.1245
     H      3.50920000     -0.57500000      1.56880000    0.0322   25.0424
     H      2.57640000     -2.86320000      1.52270000    0.0315   25.2676
     H      2.20230000     -0.02440000      2.82510000    0.0205   25.2615
     H      1.25750000     -2.35840000      2.78240000    0.0228   25.3077
     H      6.40150000     -4.21130000     -1.70730000    0.0896   28.0749
     H      5.87840000      0.37770000      1.10230000    0.0256   26.0900
     H      6.64460000     -4.61050000      1.09690000   -0.0148   27.8467
     H      5.88110000     -1.12740000     -1.16300000   -0.0383   25.4639
     H      6.02880000     -2.49070000     -2.00580000    0.0686   28.8303
     H      6.21940000     -1.25390000      2.03380000    0.0426   23.8592
     H      6.47380000     -2.95250000      2.03290000    0.0087   26.2345
