19
chgs=0 nmr=1 alpha=80.8 b3lypd3vdz=-273.708477646689 
     C      6.04520000     -0.70090000      1.09900000   -0.0004   72.8351
     C      6.47650000     -3.53090000      1.09720000    0.0101   72.0305
     C      6.26560000     -1.40060000      2.28170000   -0.0188   53.6192
     C      6.47310000     -2.79860000      2.28190000   -0.0282   54.9643
     C      2.64600000      1.59200000      2.95990000    0.0131  175.0951
     C      2.08100000      0.19180000      3.00120000   -0.1286   48.8574
     C      2.64120000     -0.80650000      2.18810000   -0.0125   55.9300
     H      5.87840000      0.37770000      1.10230000    0.0246   25.8636
     H      6.64460000     -4.61050000      1.09690000    0.0209   25.8559
     H      6.27140000     -0.86200000      3.23210000   -0.0163   24.9755
     H      6.63660000     -3.31610000      3.23010000   -0.0190   25.0376
     H      6.03240000     -1.26230000      0.15310000    0.0233   23.9126
     H      6.30420000     -2.97780000      0.16210000    0.0209   23.8595
     H      3.74190000      1.55800000      3.06080000    0.0344   29.2953
     H      2.25480000      2.20950000      3.78430000    0.0208   29.9746
     H      3.50920000     -0.57500000      1.56880000    0.0107   25.0110
     H      2.45380000      2.10780000      2.00750000    0.0401   29.3793
     H      1.22090000     -0.08240000      3.62970000   -0.0088   24.7946
     H      2.23470000     -1.82840000      2.16590000    0.0136   25.3816
