14
chgs=0 nmr=1 alpha=45.99 b3lypd3vdz=-249.546263853113 
     C     -5.95950000     -0.75220000      0.59260000    0.0568  162.9373
     N     -4.93360000     -0.42760000      1.58080000   -0.2545  261.4810
     C     -1.88600000      2.12790000     -0.35750000   -0.0349  159.1648
     C     -3.36750000      2.38270000     -0.31390000    0.1372   -6.3549
     O     -4.04740000      2.27800000      0.70320000   -0.2087 -339.1121
     H     -6.64650000     -1.48990000      1.03030000    0.0043   28.8015
     H     -4.60560000      0.53540000      1.61300000    0.0817   30.4880
     H     -5.59000000     -1.27100000     -0.30420000   -0.0136   29.0066
     H     -6.50330000      0.16910000      0.33670000    0.0255   29.0883
     H     -4.37810000     -1.13950000      2.01050000    0.0633   32.6003
     H     -1.37820000      3.00360000     -0.78400000    0.0460   29.3207
     H     -1.69840000      1.28000000     -1.04010000    0.0546   29.2281
     H     -1.50290000      1.90990000      0.65030000    0.0451   29.3780
     H     -3.79600000      2.66310000     -1.28740000   -0.0029   21.4204
