14
chgs=0 nmr=1 alpha=49.7 b3lypd3vdz=-303.703594202117 
     N      0.09590000      1.69900000      1.09290000   -0.2291  257.4194
     C     -1.35040000      1.82310000      1.05140000    0.1488  145.4382
     C     -1.91270000      0.47570000      1.51600000    0.1287   26.8518
     O     -1.83470000     -0.51030000      0.76680000   -0.3090  -55.6608
     N     -2.50100000      0.37410000      2.72560000   -0.1474  161.1201
     C     -3.06370000     -0.92600000      3.11590000    0.0653  161.7954
     H      0.50170000      0.84260000      0.71010000    0.0904   31.1040
     H     -1.61820000      2.64140000      1.72800000   -0.0091   28.7051
     H     -2.29450000     -1.70630000      3.05990000    0.0431   28.3650
     H      0.69480000      2.44590000      1.38170000    0.0745   31.6214
     H     -1.73350000      2.04110000      0.04360000    0.0173   27.9194
     H     -2.69620000      1.10040000      3.38470000    0.0776   26.9782
     H     -3.86060000     -1.26200000      2.43610000    0.0389   28.5840
     H     -3.40980000     -0.74980000      4.14510000    0.0099   29.2635
