11
chgs=0 nmr=1 alpha=37.54 b3lypd3vdz=-264.422315351936 
     N      0.29000000     -2.47520000     -0.72790000   -0.2046  259.3299
     C      1.51630000     -2.25140000     -1.46470000    0.0777  148.3930
     C      1.94450000     -0.78610000     -1.39400000    0.0633   25.2148
     O      1.25770000      0.07870000     -0.82990000   -0.2702  -84.9969
     N      3.11920000     -0.50300000     -1.99710000   -0.0499  176.3238
     H     -0.46940000     -1.80640000     -0.84560000    0.0886   30.8874
     H      2.30700000     -2.84320000     -0.97730000    0.0254   28.4821
     H      3.66780000     -1.30950000     -2.29190000    0.0824   28.2268
     H      0.13210000     -3.33170000     -0.23650000    0.0719   31.6100
     H      1.41200000     -2.60180000     -2.50220000    0.0221   27.6239
     H      3.69420000      0.28340000     -1.77130000    0.0934   27.9029
