12
chgs=0 nmr=1 alpha=43.99 b3lypd3vdz=-248.379305694488 
     C     -1.91270000      0.47570000      1.51600000    0.1771   35.6709
     O     -1.83470000     -0.51030000      0.76680000   -0.2962 -114.2852
     N     -2.50100000      0.37410000      2.72560000   -0.1252  124.9376
     C     -3.88230000      0.82070000      4.57630000   -0.0492  169.5569
     C     -2.78870000      1.44460000      3.69700000    0.0701  155.7534
     H     -4.86980000      0.99170000      4.11760000    0.0408   29.5559
     H     -3.89940000      1.24920000      5.58850000    0.0295   29.8969
     H     -1.88090000      1.68360000      4.27730000    0.0293   28.2878
     H     -3.13200000      2.35020000      3.17990000    0.0317   28.3138
     H     -1.50900000      1.44310000      1.18240000   -0.0144   23.1936
     H     -2.88390000     -0.51070000      2.99120000    0.0818   28.3188
     H     -3.64330000     -0.25290000      4.56270000    0.0246   30.8019
