10
chgs=0 nmr=1 alpha=32.15 b3lypd3vdz=-230.113590168634 
     C     -2.54580000     -3.08320000     -1.64360000    0.2056  -12.2329
     O     -1.85310000     -3.71080000     -2.46200000   -0.2317 -429.8770
     O      0.17140000     -2.23790000     -3.52280000   -0.3252  307.0394
     C      1.36760000     -2.75080000     -2.94330000    0.1031  142.7640
     H     -3.26280000     -2.32260000     -1.98630000    0.0355   21.3586
     H     -2.43150000     -3.20220000     -0.55600000    0.0359   21.1606
     H     -0.55590000     -2.85860000     -3.27480000    0.1500   30.6673
     H      2.19480000     -2.32230000     -3.53340000    0.0209   28.0046
     H      1.47190000     -2.40040000     -1.90580000   -0.0036   28.1057
     H      1.40180000     -3.84800000     -3.01410000    0.0095   27.9089
