8
chgs=0 nmr=1 alpha=24.42 b3lypd3vdz=-79.762888160469 
     C     -3.88230000      0.82070000      4.57630000   -0.0597  181.8489
     C     -2.78870000      1.44460000      3.69700000   -0.0626  181.9090
     H     -4.86980000      0.99170000      4.11760000    0.0198   30.2733
     H     -3.89940000      1.24920000      5.58850000    0.0211   30.3388
     H     -1.88090000      1.68360000      4.27730000    0.0211   30.2804
     H     -3.13200000      2.35020000      3.17990000    0.0198   30.4173
     H     -3.64330000     -0.25290000      4.56270000    0.0215   30.0101
     H     -2.57400000      0.64570000      2.97200000    0.0191   30.0638
