18
chgs=0 nmr=1 alpha=69.11 b3lypd3vdz=-235.646702463559 
     C      6.04520000     -0.70090000      1.09900000   -0.0611   59.1577
     C      6.26560000     -1.40060000      2.28170000   -0.0481   56.7121
     C      2.64600000      1.59200000      2.95990000    0.0067  163.7988
     C      2.08100000      0.19180000      3.00120000   -0.0916   40.9023
     C      2.64120000     -0.80650000      2.18810000   -0.0097   56.0873
     C      2.37390000      2.32220000      1.61150000   -0.0162  167.5444
     H      5.87840000      0.37770000      1.10230000    0.0340   24.9863
     H      6.27140000     -0.86200000      3.23210000    0.0309   25.2277
     H      6.03240000     -1.26230000      0.15310000    0.0310   25.1189
     H      6.42710000     -2.48870000      2.28190000    0.0311   25.0108
     H      3.74190000      1.55800000      3.06080000    0.0199   28.9750
     H      2.25480000      2.20950000      3.78430000    0.0056   29.5695
     H      3.50920000     -0.57500000      1.56880000    0.0196   24.9577
     H      2.62670000      1.62560000      0.80080000    0.0190   30.5469
     H      1.22090000     -0.08240000      3.62970000   -0.0155   24.4275
     H      2.23470000     -1.82840000      2.16590000    0.0129   25.3759
     H      2.99190000      3.22490000      1.49700000    0.0115   30.0680
     H      1.31330000      2.59870000      1.51820000    0.0197   30.0692
