23
chgs=0 nmr=1 alpha=76.42 b3lypd3vdz=-313.296932761746 
     C     -6.72760000      0.54920000      0.23110000   -0.0774  182.7594
     C     -7.17340000      0.66390000     -1.24020000   -0.0726  181.7596
     C     -2.83870000     -1.09330000     -3.13790000   -0.0701  181.4654
     C     -3.77040000     -0.02030000     -3.68410000   -0.0743  180.6167
     C     -1.88600000      2.12790000     -0.35750000   -0.0396  159.3457
     C     -3.36750000      2.38270000     -0.31390000    0.1203   -4.8618
     O     -4.04740000      2.27800000      0.70320000   -0.1949 -353.3690
     H     -7.60780000      0.64120000      0.88650000    0.0102   30.6628
     H     -6.07680000      1.40620000      0.44970000    0.0413   29.3120
     H     -6.30940000      0.50900000     -1.90500000    0.0156   30.5705
     H     -7.93760000     -0.07880000     -1.49670000    0.0147   30.6299
     H     -6.18380000     -0.37210000      0.48700000    0.0110   30.9370
     H     -7.57180000      1.66990000     -1.43800000    0.0169   30.5987
     H     -2.49380000     -1.73900000     -3.96220000    0.0228   30.2916
     H     -3.25600000      0.55400000     -4.46900000    0.0184   30.3534
     H     -4.68470000     -0.46680000     -4.10730000    0.0300   30.2470
     H     -4.05240000      0.68150000     -2.88650000    0.0317   30.4437
     H     -3.34220000     -1.75290000     -2.41580000    0.0265   30.3767
     H     -1.97400000     -0.61410000     -2.65550000    0.0210   30.4692
     H     -1.37820000      3.00360000     -0.78400000    0.0456   29.3070
     H     -1.69840000      1.28000000     -1.04010000    0.0587   29.1893
     H     -1.50290000      1.90990000      0.65030000    0.0453   29.3350
     H     -3.79600000      2.66310000     -1.28740000   -0.0011   21.3440
