13
chgs=0 nmr=1 alpha=46.8 b3lypd3vdz=-323.56897497525 
     C     -2.54580000     -3.08320000     -1.64360000    0.1666   38.2497
     O     -1.85310000     -3.71080000     -2.46200000   -0.3000  -99.0248
     N     -2.40610000     -3.22870000     -0.31420000   -0.0475  158.6825
     C     -1.35040000      1.82310000      1.05140000   -0.0306  162.6647
     C     -1.91270000      0.47570000      1.51600000    0.1124  -14.3409
     O     -1.83470000     -0.51030000      0.76680000   -0.2220 -403.8454
     H     -3.05840000     -2.77050000      0.31520000    0.0896   27.0746
     H     -3.26280000     -2.32260000     -1.98630000   -0.0147   23.2276
     H     -1.68320000     -3.77990000      0.10240000    0.0913   27.1940
     H     -1.61820000      2.64140000      1.72800000    0.0246   29.3797
     H     -0.25490000      1.72910000      1.08280000    0.0660   29.5202
     H     -1.73350000      2.04110000      0.04360000    0.0640   29.3473
     H     -2.39240000      0.39280000      2.50240000    0.0004   20.9585
