19
chgs=0 nmr=1 alpha=70.01 b3lypd3vdz=-310.852215061605 
     C      0.98480000     -0.15760000      3.80220000   -0.0616   59.4282
     C      0.45840000     -1.45210000      3.78880000   -0.0643   57.7061
     C     -3.06370000     -0.92600000      3.11590000   -0.0114  129.8780
     C     -4.17810000     -1.39590000      2.16520000    0.1581  -11.9993
     O     -4.36040000     -2.59610000      1.96420000   -0.2092 -381.6730
     C     -3.54840000     -0.67920000      4.55730000   -0.0441  169.1397
     C     -3.88230000      0.82070000      4.57630000   -0.0194  162.8839
     H      0.53070000      0.59650000      4.45220000    0.0275   25.2550
     H     -0.38490000     -1.72720000      4.42550000    0.0405   25.1433
     H      1.84490000      0.11660000      3.17370000    0.0333   25.1030
     H      0.89720000     -2.21930000      3.13390000    0.0333   25.1212
     H     -2.29450000     -1.70630000      3.05990000    0.0206   28.8151
     H     -4.39500000     -1.32650000      4.82530000    0.0189   30.1392
     H     -2.72210000     -0.89730000      5.25360000    0.0193   29.7663
     H     -4.86980000      0.99170000      4.11760000    0.0248   29.5631
     H     -3.89940000      1.24920000      5.58850000    0.0165   29.7746
     H     -2.64250000      0.04720000      2.82370000    0.0071   28.9353
     H     -4.78910000     -0.61280000      1.69260000   -0.0117   20.8626
     H     -3.09900000      1.26760000      3.94650000    0.0220   30.0234
