14
chgs=0 nmr=1 alpha=46.33 b3lypd3vdz=-249.554415482341 
     N      5.62010000      4.82020000     -0.78950000   -0.2075  243.5047
     C      5.13490000      4.75780000      0.58520000    0.0233  159.9331
     C      1.75110000      3.61130000     -2.68940000   -0.0516  160.8089
     C      1.57950000      4.49420000     -1.45790000    0.1241   -2.7669
     O      2.47210000      5.11220000     -0.91980000   -0.1803 -328.8481
     H      6.12690000      3.95360000     -0.98840000    0.0585   32.0480
     H      4.80970000      4.78470000     -1.41320000    0.0597   30.5268
     H      5.99190000      4.83530000      1.27870000    0.0098   29.0765
     H      4.47090000      5.61460000      0.77610000    0.0333   28.4872
     H      4.62640000      3.81080000      0.81860000   -0.0149   29.0865
     H      2.50890000      4.05600000     -3.34560000    0.0521   29.7029
     H      0.79420000      3.49920000     -3.21900000    0.0362   29.2390
     H      2.12030000      2.62820000     -2.36210000    0.0627   29.5640
     H      0.55720000      4.43690000     -1.05590000   -0.0054   21.3174
