13
chgs=0 nmr=1 alpha=42.44 b3lypd3vdz=-174.321193757651 
     C      2.64120000     -0.80650000      2.18810000   -0.0631   59.5083
     C      2.12680000     -2.09980000      2.16000000   -0.0589   59.3612
     N      3.11920000     -0.50300000     -1.99710000   -0.2380  263.4333
     C      3.96600000      0.65520000     -1.66450000    0.0417  162.6204
     H      3.50920000     -0.57500000      1.56880000    0.0391   25.1224
     H      2.57640000     -2.86320000      1.52270000    0.0266   25.2393
     H      2.20230000     -0.02440000      2.82510000    0.0291   25.0439
     H      1.25750000     -2.35840000      2.78240000    0.0293   25.2123
     H      3.66780000     -1.30950000     -2.29190000    0.0746   31.5559
     H      3.89510000      0.83610000     -0.58100000    0.0054   28.4333
     H      2.24940000     -0.71260000     -1.55050000    0.0758   31.9706
     H      3.68100000      1.60630000     -2.13800000    0.0169   28.9182
     H      5.01370000      0.41680000     -1.90020000    0.0216   29.1142
