13
chgs=0 nmr=1 alpha=46.57 b3lypd3vdz=-323.51383674563 
     C     -4.17810000     -1.39590000      2.16520000    0.1881   -6.4702
     O     -4.36040000     -2.59610000      1.96420000   -0.2069 -450.0921
     C     -1.36200000     -4.02470000      0.28750000    0.0645  137.6350
     C      0.07660000     -3.63300000     -0.06370000    0.1415  -23.8933
     O      0.98870000     -4.40750000      0.25670000   -0.2247 -387.3284
     N     -2.40610000     -3.22870000     -0.31420000   -0.2253  255.1483
     H     -3.38120000     -1.05990000      2.84500000    0.0245   21.2798
     H     -4.78910000     -0.61280000      1.69260000    0.0259   21.2183
     H     -1.46800000     -3.96920000      1.37910000    0.0479   28.3013
     H     -1.43760000     -5.08370000     -0.00650000    0.0351   27.8256
     H     -3.05840000     -2.77050000      0.31520000    0.0775   31.5030
     H      0.25030000     -2.69080000     -0.60420000   -0.0230   21.0925
     H     -2.51000000     -3.12050000     -1.30290000    0.0748   31.1485
