18
chgs=0 nmr=1 alpha=70.06 b3lypd3vdz=-235.645144820971 
     C      3.96600000      0.65520000     -1.66450000   -0.0663  180.3188
     C      5.43980000      0.31980000     -1.99600000   -0.0650  180.9692
     C      2.08100000      0.19180000      3.00120000   -0.0289   53.9757
     C      2.64120000     -0.80650000      2.18810000   -0.0259   55.4272
     C      0.98480000     -0.15760000      3.80220000    0.0036   70.0631
     C      2.12680000     -2.09980000      2.16000000    0.0033   72.9973
     H      3.89510000      0.83610000     -0.58100000    0.0209   30.4603
     H      5.58910000      0.39330000     -3.08410000    0.0213   30.3461
     H      6.04570000      1.11050000     -1.53420000    0.0182   30.3523
     H      3.33350000     -0.20980000     -1.91290000    0.0262   30.2106
     H      3.68100000      1.60630000     -2.13800000    0.0219   30.3244
     H      5.72960000     -0.67490000     -1.62650000    0.0237   30.3823
     H      3.50920000     -0.57500000      1.56880000   -0.0164   25.0985
     H      0.53070000      0.59650000      4.45220000    0.0168   26.1158
     H      2.57640000     -2.86320000      1.52270000    0.0151   26.1343
     H      2.49250000      1.21150000      2.97110000   -0.0146   24.7653
     H      0.57050000     -1.17650000      3.79170000    0.0264   23.5163
     H      1.25750000     -2.35840000      2.78240000    0.0198   23.9599
