17
chgs=0 nmr=1 alpha=70.17 b3lypd3vdz=-309.631726891334 
     C      1.51630000     -2.25140000     -1.46470000   -0.0408  157.8312
     C      1.94450000     -0.78610000     -1.39400000    0.1232   -8.1456
     O      1.25770000      0.07870000     -0.82990000   -0.2076 -403.2317
     C      2.08100000      0.19180000      3.00120000    0.0114   70.1672
     C      2.64120000     -0.80650000      2.18810000   -0.0192   53.4528
     C      2.12680000     -2.09980000      2.16000000   -0.0228   55.2152
     C      1.01760000     -2.42980000      2.95410000   -0.0060   70.8368
     H      2.30700000     -2.84320000     -0.97730000    0.0405   29.6024
     H      0.58470000     -2.42140000     -0.90500000    0.0476   29.3710
     H      1.41200000     -2.60180000     -2.50220000    0.0450   29.3207
     H      2.90130000     -0.55550000     -1.88520000   -0.0080   21.2997
     H      3.50920000     -0.57500000      1.56880000   -0.0266   25.4601
     H      2.57640000     -2.86320000      1.52270000   -0.0244   25.1787
     H      2.49250000      1.21150000      2.97110000    0.0237   25.8361
     H      1.22090000     -0.08240000      3.62970000    0.0222   23.7111
     H      0.57880000     -1.66260000      3.60900000    0.0238   23.8255
     H      0.56610000     -3.43290000      2.95190000    0.0181   26.0000
