14
chgs=0 nmr=1 alpha=51.05 b3lypd3vdz=-307.503482046336 
     C      3.96600000      0.65520000     -1.66450000   -0.0611  157.8481
     C      3.56570000      1.99100000     -2.32950000    0.1234   -3.4506
     O      4.40780000      2.72380000     -2.83520000   -0.1964 -379.6102
     C      2.37390000      2.32220000      1.61150000   -0.0506  159.1124
     C      0.90310000      2.70560000      1.48210000    0.1224   -9.7591
     O      0.49730000      3.84920000      1.74780000   -0.2106 -408.3684
     H      3.89510000      0.83610000     -0.58100000    0.0583   29.4422
     H      3.33350000     -0.20980000     -1.91290000    0.0412   29.1391
     H      5.01370000      0.41680000     -1.90020000    0.0450   29.4393
     H      2.49780000      2.24810000     -2.27050000   -0.0051   21.3790
     H      2.62670000      1.62560000      0.80080000    0.0252   29.2784
     H      2.99190000      3.22490000      1.49700000    0.0530   29.4065
     H      2.56610000      1.80640000      2.56390000    0.0609   29.3297
     H      0.24430000      1.88400000      1.16440000   -0.0057   21.0931
