14
chgs=0 nmr=1 alpha=49.59 b3lypd3vdz=-303.712018724551 
     N     -2.40610000     -3.22870000     -0.31420000   -0.2199  258.2838
     C     -1.36200000     -4.02470000      0.28750000    0.1051  144.8027
     C      0.07660000     -3.63300000     -0.06370000    0.0916   23.9119
     O      0.98870000     -4.40750000      0.25670000   -0.3011  -53.7136
     N      0.29000000     -2.47520000     -0.72790000   -0.1440  164.4233
     C      1.51630000     -2.25140000     -1.46470000    0.0583  166.3699
     H     -3.05840000     -2.77050000      0.31520000    0.0864   30.8316
     H     -1.46800000     -3.96920000      1.37910000    0.0434   28.3589
     H     -1.43760000     -5.08370000     -0.00650000    0.0358   27.7958
     H     -0.46940000     -1.80640000     -0.84560000    0.0656   25.9268
     H      2.30700000     -2.84320000     -0.97730000    0.0512   27.1784
     H     -2.51000000     -3.12050000     -1.30290000    0.0777   31.7239
     H      1.82450000     -1.19670000     -1.41380000    0.0214   29.2161
     H      1.41200000     -2.60180000     -2.50220000    0.0284   29.1536
