17
chgs=0 nmr=1 alpha=61.6 b3lypd3vdz=-342.999974507618 
     N      0.09590000      1.69900000      1.09290000   -0.1896  241.8932
     C     -1.35040000      1.82310000      1.05140000   -0.0028  139.2172
     C     -1.91270000      0.47570000      1.51600000    0.2042   23.4324
     O     -1.83470000     -0.51030000      0.76680000   -0.3078  -39.1216
     C     -1.88600000      2.12790000     -0.35750000    0.0571  166.1321
     N     -2.50100000      0.37410000      2.72560000   -0.1511  161.1003
     C     -3.06370000     -0.92600000      3.11590000    0.0657  161.8878
     H      0.50170000      0.84260000      0.71010000    0.0879   30.7427
     H     -1.61820000      2.64140000      1.72800000   -0.0286   28.7683
     H     -1.37820000      3.00360000     -0.78400000   -0.0048   30.6761
     H     -1.69840000      1.28000000     -1.04010000    0.0292   29.3505
     H     -2.29450000     -1.70630000      3.05990000    0.0427   28.3092
     H      0.69480000      2.44590000      1.38170000    0.0729   31.0928
     H     -2.96960000      2.31430000     -0.32560000   -0.0013   30.6558
     H     -2.69620000      1.10040000      3.38470000    0.0773   26.9561
     H     -3.86060000     -1.26200000      2.43610000    0.0388   28.5337
     H     -3.40980000     -0.74980000      4.14510000    0.0101   29.2233
