13
chgs=0 nmr=1 alpha=46.13 b3lypd3vdz=-323.513499317876 
     C      4.42820000      3.44170000      0.90960000    0.1831   -5.8261
     O      4.96590000      2.35460000      0.66000000   -0.2006 -462.7699
     N      3.11920000     -0.50300000     -1.99710000   -0.2242  261.0265
     C      3.96600000      0.65520000     -1.66450000    0.0435  134.1258
     C      3.56570000      1.99100000     -2.32950000    0.1640  -10.3466
     O      4.40780000      2.72380000     -2.83520000   -0.2119 -348.7073
     H      4.93670000      4.38870000      0.67620000    0.0302   21.5620
     H      3.42440000      3.49910000      1.35580000    0.0182   21.4500
     H      3.66780000     -1.30950000     -2.29190000    0.0861   31.1938
     H      3.89510000      0.83610000     -0.58100000    0.0371   27.3844
     H      2.24940000     -0.71260000     -1.55050000    0.0744   31.5693
     H      5.01370000      0.41680000     -1.90020000    0.0291   28.4648
     H      2.49780000      2.24810000     -2.27050000   -0.0289   21.6001
