17
chgs=0 nmr=1 alpha=61.48 b3lypd3vdz=-342.986900711664 
     N      0.09590000      1.69900000      1.09290000   -0.2280  259.4965
     C     -1.35040000      1.82310000      1.05140000    0.1296  148.7997
     C     -1.91270000      0.47570000      1.51600000    0.0920   25.6729
     O     -1.83470000     -0.51030000      0.76680000   -0.3023  -52.9247
     N     -2.50100000      0.37410000      2.72560000   -0.1235  130.9904
     C     -3.88230000      0.82070000      4.57630000   -0.0359  169.9141
     C     -2.78870000      1.44460000      3.69700000    0.0577  152.3708
     H      0.50170000      0.84260000      0.71010000    0.0909   31.1707
     H     -1.61820000      2.64140000      1.72800000   -0.0041   28.2053
     H     -4.86980000      0.99170000      4.11760000    0.0383   29.5843
     H     -3.89940000      1.24920000      5.58850000    0.0272   29.9113
     H     -1.88090000      1.68360000      4.27730000    0.0264   28.1959
     H     -3.13200000      2.35020000      3.17990000    0.0395   28.3253
     H      0.69480000      2.44590000      1.38170000    0.0745   31.6133
     H     -1.73350000      2.04110000      0.04360000    0.0157   28.1026
     H     -2.88390000     -0.51070000      2.99120000    0.0778   28.5719
     H     -3.64330000     -0.25290000      4.56270000    0.0240   30.7192
