12
chgs=0 nmr=1 alpha=43.27 b3lypd3vdz=-248.398110835817 
     C     -5.95950000     -0.75220000      0.59260000    0.0694  163.9747
     C     -3.06370000     -0.92600000      3.11590000   -0.0027  168.8783
     C     -4.17810000     -1.39590000      2.16520000    0.0777   29.7568
     O     -4.36040000     -2.59610000      1.96420000   -0.2817  -90.9183
     N     -4.93360000     -0.42760000      1.58080000   -0.1540  157.4373
     H     -6.64650000     -1.48990000      1.03030000    0.0428   28.3707
     H     -2.29450000     -1.70630000      3.05990000    0.0489   29.7129
     H     -4.60560000      0.53540000      1.61300000    0.0851   27.2931
     H     -5.59000000     -1.27100000     -0.30420000    0.0347   28.6925
     H     -6.50330000      0.16910000      0.33670000    0.0198   29.2671
     H     -2.64250000      0.04720000      2.82370000    0.0093   30.1641
     H     -3.40980000     -0.74980000      4.14510000    0.0508   29.3624
