16
chgs=0 nmr=1 alpha=58.57 b3lypd3vdz=-362.82699994565 
     N     -2.50100000      0.37410000      2.72560000   -0.1403  154.6240
     C     -3.06370000     -0.92600000      3.11590000    0.0510  161.6871
     C     -1.91270000      0.47570000      1.51600000    0.2122   38.5660
     O     -1.83470000     -0.51030000      0.76680000   -0.3010 -111.3580
     C      0.45840000     -1.45210000      3.78880000   -0.0685   92.1688
     C      1.01760000     -2.42980000      2.95410000    0.0487   35.2844
     O      0.45780000     -3.67340000      2.95140000   -0.1787  214.5731
     H     -2.29450000     -1.70630000      3.05990000    0.0635   27.8620
     H     -2.69620000      1.10040000      3.38470000    0.0776   26.9886
     H     -3.86060000     -1.26200000      2.43610000    0.0365   28.5362
     H     -3.40980000     -0.74980000      4.14510000    0.0101   29.2894
     H     -1.50900000      1.44310000      1.18240000   -0.0149   23.1108
     H     -0.38490000     -1.72720000      4.42550000    0.0160   26.4556
     H      0.82970000     -4.18290000      2.20160000    0.1607   28.2432
     H      0.87270000     -0.43320000      3.79930000    0.0148   26.8850
     H      1.88690000     -2.17120000      2.33170000    0.0122   24.0967
