7
chgs=0 nmr=1 alpha=19.36 b3lypd3vdz=-95.781081577812 
     N     -2.50100000      0.37410000      2.72560000   -0.2364  266.3861
     C     -3.06370000     -0.92600000      3.11590000    0.0450  160.2533
     H     -2.29450000     -1.70630000      3.05990000    0.0096   28.6624
     H     -2.06490000      0.44940000      1.82890000    0.0774   31.8572
     H     -2.69620000      1.10040000      3.38470000    0.0775   31.1553
     H     -3.86060000     -1.26200000      2.43610000    0.0059   28.5749
     H     -3.40980000     -0.74980000      4.14510000    0.0210   28.9233
