9
chgs=0 nmr=1 alpha=32.14 b3lypd3vdz=-209.096768637753 
     N      3.11920000     -0.50300000     -1.99710000   -0.1360  154.8562
     C      3.96600000      0.65520000     -1.66450000    0.0508  163.0126
     C      1.94450000     -0.78610000     -1.39400000    0.1876   34.9107
     O      1.25770000      0.07870000     -0.82990000   -0.2872 -117.0299
     H      3.66780000     -1.30950000     -2.29190000    0.0851   27.7751
     H      3.89510000      0.83610000     -0.58100000    0.0388   28.3364
     H      3.68100000      1.60630000     -2.13800000    0.0497   28.5453
     H      5.01370000      0.41680000     -1.90020000    0.0268   29.1450
     H      1.63630000     -1.84080000     -1.44490000   -0.0156   23.2732
