17
chgs=0 nmr=1 alpha=58.16 b3lypd3vdz=-288.835447841164 
     C     -5.95950000     -0.75220000      0.59260000    0.0667  155.4799
     C     -6.72760000      0.54920000      0.23110000   -0.0520  175.9225
     N     -4.93360000     -0.42760000      1.58080000   -0.2367  243.9346
     C     -1.88600000      2.12790000     -0.35750000   -0.0292  159.0384
     C     -3.36750000      2.38270000     -0.31390000    0.1405   -6.5252
     O     -4.04740000      2.27800000      0.70320000   -0.2001 -333.1286
     H     -6.64650000     -1.48990000      1.03030000   -0.0049   28.6569
     H     -7.60780000      0.64120000      0.88650000    0.0195   30.0386
     H     -6.07680000      1.40620000      0.44970000    0.0296   29.9600
     H     -4.60560000      0.53540000      1.61300000    0.0797   30.9174
     H     -5.59000000     -1.27100000     -0.30420000   -0.0246   28.7894
     H     -7.04570000      0.63100000     -0.81870000    0.0012   30.6859
     H     -4.37810000     -1.13950000      2.01050000    0.0597   32.3373
     H     -1.37820000      3.00360000     -0.78400000    0.0475   29.2627
     H     -1.69840000      1.28000000     -1.04010000    0.0565   29.1789
     H     -1.50290000      1.90990000      0.65030000    0.0463   29.3090
     H     -3.79600000      2.66310000     -1.28740000    0.0005   21.4752
