13
chgs=0 nmr=1 alpha=50.22 b3lypd3vdz=-377.741383792632 
     C      4.42820000      3.44170000      0.90960000    0.1986   36.4060
     O      4.96590000      2.35460000      0.66000000   -0.2978 -105.3210
     N      3.18890000      3.51260000      1.46050000   -0.1467  145.2342
     C      2.37390000      2.32220000      1.61150000    0.1340  150.2346
     C      0.90310000      2.70560000      1.48210000    0.0571   27.6247
     O      0.49730000      3.84920000      1.74780000   -0.2811  -54.4962
     N      0.09590000      1.69900000      1.09290000   -0.0526  168.0574
     H      2.70330000      4.40390000      1.49810000    0.0957   26.3055
     H      2.62670000      1.62560000      0.80080000    0.0338   27.6375
     H      0.50170000      0.84260000      0.71010000    0.1033   27.0355
     H      4.93670000      4.38870000      0.67620000   -0.0060   23.1938
     H      2.56610000      1.80640000      2.56390000    0.0612   28.1456
     H     -0.90000000      1.78450000      1.06430000    0.1007   27.5257
