9
chgs=0 nmr=1 alpha=31.42 b3lypd3vdz=-209.114393128191 
     C     -3.06370000     -0.92600000      3.11590000   -0.0095  169.2507
     C     -4.17810000     -1.39590000      2.16520000    0.0430   30.6511
     O     -4.36040000     -2.59610000      1.96420000   -0.2681  -91.2020
     N     -4.93360000     -0.42760000      1.58080000   -0.0647  167.9870
     H     -2.29450000     -1.70630000      3.05990000    0.0509   29.6898
     H     -4.60560000      0.53540000      1.61300000    0.0906   27.3896
     H     -2.64250000      0.04720000      2.82370000    0.0105   30.0771
     H     -3.40980000     -0.74980000      4.14510000    0.0535   29.3016
     H     -5.63580000     -0.64980000      0.90440000    0.0938   27.8620
