10
chgs=0 nmr=1 alpha=31.67 b3lypd3vdz=-135.078838978605 
     C      2.64600000      1.59200000      2.95990000   -0.0050  164.9438
     N      3.18890000      3.51260000      1.46050000   -0.2084  247.3124
     C      2.37390000      2.32220000      1.61150000    0.0328  151.9075
     H      3.74190000      1.55800000      3.06080000    0.0060   30.5969
     H      2.25480000      2.20950000      3.78430000    0.0099   30.1686
     H      2.70330000      4.40390000      1.49810000    0.0762   30.7552
     H      2.62670000      1.62560000      0.80080000    0.0030   28.4890
     H      2.23450000      0.57230000      2.99000000    0.0021   30.3995
     H      4.10140000      3.46040000      1.05490000    0.0731   31.3769
     H      1.31330000      2.59870000      1.51820000    0.0104   28.8369
