16
chgs=0 nmr=1 alpha=57.22 b3lypd3vdz=-362.879625920514 
     C      1.51630000     -2.25140000     -1.46470000    0.0607  139.5167
     C      1.94450000     -0.78610000     -1.39400000    0.0662   25.7956
     O      1.25770000      0.07870000     -0.82990000   -0.2675 -113.4180
     C      1.36760000     -2.75080000     -2.94330000    0.0383  119.8355
     O      0.17140000     -2.23790000     -3.52280000   -0.2630  254.6135
     C      1.41510000     -4.27320000     -3.04150000    0.0143  164.3704
     N      3.11920000     -0.50300000     -1.99710000   -0.0467  175.0633
     H      2.30700000     -2.84320000     -0.97730000    0.0061   29.4721
     H      2.19480000     -2.32230000     -3.53340000    0.0002   27.4300
     H     -0.55590000     -2.85860000     -3.27480000    0.1435   31.7657
     H      1.34630000     -4.57280000     -4.09850000    0.0260   29.9260
     H      2.34810000     -4.66960000     -2.61180000    0.0156   30.3065
     H      0.56830000     -4.72120000     -2.50170000    0.0148   30.7404
     H      3.66780000     -1.30950000     -2.29190000    0.0824   27.8520
     H      0.58470000     -2.42140000     -0.90500000    0.0157   29.6185
     H      3.69420000      0.28340000     -1.77130000    0.0934   27.8331
