18
chgs=0 nmr=1 alpha=65.93 b3lypd3vdz=-326.932150295943 
     C      0.45840000     -1.45210000      3.78880000   -0.0664   56.3137
     C      1.01760000     -2.42980000      2.95410000   -0.0567   55.0406
     C     -3.06370000     -0.92600000      3.11590000   -0.0199  155.8740
     C     -4.17810000     -1.39590000      2.16520000    0.0678   25.5615
     O     -4.36040000     -2.59610000      1.96420000   -0.2707  -73.8249
     C     -3.54840000     -0.67920000      4.55730000   -0.0200  177.9113
     N     -4.93360000     -0.42760000      1.58080000   -0.0627  170.0206
     H     -0.38490000     -1.72720000      4.42550000    0.0402   25.0836
     H      0.87270000     -0.43320000      3.79930000    0.0256   25.0307
     H      1.88690000     -2.17120000      2.33170000    0.0310   24.9145
     H      0.56610000     -3.43290000      2.95190000    0.0362   24.8623
     H     -2.29450000     -1.70630000      3.05990000    0.0368   29.1715
     H     -4.39500000     -1.32650000      4.82530000    0.0353   30.1305
     H     -2.72210000     -0.89730000      5.25360000    0.0260   29.9878
     H     -4.60560000      0.53540000      1.61300000    0.0901   27.4506
     H     -2.64250000      0.04720000      2.82370000   -0.0031   29.5252
     H     -3.78740000      0.39440000      4.57090000    0.0197   29.9242
     H     -5.63580000     -0.64980000      0.90440000    0.0908   27.9527
