17
chgs=0 nmr=1 alpha=72.54 b3lypd3vdz=-309.610078132255 
     C      6.04520000     -0.70090000      1.09900000   -0.0617   59.5314
     C      6.26560000     -1.40060000      2.28170000   -0.0468   56.3033
     C      2.64120000     -0.80650000      2.18810000    0.0265   62.7388
     C      2.12680000     -2.09980000      2.16000000   -0.0343   59.6944
     C      0.45840000     -1.45210000      3.78880000   -0.0207   99.7521
     C      1.01760000     -2.42980000      2.95410000    0.0068   32.7774
     O      0.45780000     -3.67340000      2.95140000   -0.1825  215.8978
     H      5.87840000      0.37770000      1.10230000    0.0349   25.2077
     H      6.27140000     -0.86200000      3.23210000    0.0314   25.2534
     H      6.03240000     -1.26230000      0.15310000    0.0300   25.1811
     H      6.42710000     -2.48870000      2.28190000    0.0309   25.0189
     H      3.50920000     -0.57500000      1.56880000    0.0216   25.9303
     H      2.57640000     -2.86320000      1.52270000   -0.0288   25.7997
     H     -0.38490000     -1.72720000      4.42550000    0.0028   27.0809
     H      0.82970000     -4.18290000      2.20160000    0.1451   28.9993
     H      2.20230000     -0.02440000      2.82510000    0.0258   23.9031
     H      0.87270000     -0.43320000      3.79930000    0.0189   25.1392
