12
chgs=0 nmr=1 alpha=42.08 b3lypd3vdz=-248.353747832181 
     N      0.09590000      1.69900000      1.09290000   -0.2261  253.4748
     C     -1.35040000      1.82310000      1.05140000    0.0973  150.9176
     C     -1.88600000      2.12790000     -0.35750000   -0.0459  133.9420
     C     -3.36750000      2.38270000     -0.31390000    0.1626   -8.6309
     O     -4.04740000      2.27800000      0.70320000   -0.2086 -350.5820
     H      0.50170000      0.84260000      0.71010000    0.0763   31.6355
     H     -1.61820000      2.64140000      1.72800000    0.0232   28.4223
     H     -1.37820000      3.00360000     -0.78400000    0.0221   29.2730
     H     -1.69840000      1.28000000     -1.04010000    0.0267   29.1227
     H      0.69480000      2.44590000      1.38170000    0.0729   31.2517
     H     -1.75410000      0.85570000      1.38500000    0.0207   28.0838
     H     -3.79600000      2.66310000     -1.28740000   -0.0213   21.3052
