18
chgs=0 nmr=1 alpha=66.25 b3lypd3vdz=-326.982082134604 
     C     -5.95950000     -0.75220000      0.59260000   -0.0018  168.0483
     C     -5.44150000     -1.47950000     -0.66470000    0.0902   30.8972
     O     -6.22450000     -2.15670000     -1.31890000   -0.2783  -64.5316
     N     -4.14050000     -1.27530000     -1.02540000   -0.1462  142.1832
     C     -3.54700000     -2.02120000     -2.12210000    0.0877  150.8578
     C     -2.83870000     -1.09330000     -3.13790000   -0.0510  163.4696
     C     -3.77040000     -0.02030000     -3.68410000   -0.0088  178.5596
     H     -6.64650000     -1.48990000      1.03030000    0.0492   29.5543
     H     -3.49920000     -0.77170000     -0.41380000    0.0814   27.2981
     H     -4.37040000     -2.54620000     -2.62940000    0.0420   27.2176
     H     -2.49380000     -1.73900000     -3.96220000    0.0095   29.9710
     H     -3.25600000      0.55400000     -4.46900000    0.0123   30.4700
     H     -4.68470000     -0.46680000     -4.10730000    0.0295   30.6069
     H     -4.05240000      0.68150000     -2.88650000    0.0125   30.1928
     H     -5.18710000     -0.50780000      1.33670000    0.0085   30.2142
     H     -6.50330000      0.16910000      0.33670000    0.0553   29.3209
     H     -2.83000000     -2.78180000     -1.77940000    0.0090   28.8555
     H     -1.97400000     -0.61410000     -2.65550000   -0.0011   30.1998
