11
chgs=0 nmr=1 alpha=43.55 b3lypd3vdz=-322.37276756124 
     C     -5.95950000     -0.75220000      0.59260000    0.0643  139.7073
     C     -5.44150000     -1.47950000     -0.66470000    0.1657   -9.0981
     O     -6.22450000     -2.15670000     -1.31890000   -0.1975 -360.9082
     C     -4.17810000     -1.39590000      2.16520000    0.2019   37.2929
     O     -4.36040000     -2.59610000      1.96420000   -0.2749 -104.5446
     N     -4.93360000     -0.42760000      1.58080000   -0.1512  149.5813
     H     -6.64650000     -1.48990000      1.03030000    0.0658   27.2648
     H     -4.60560000      0.53540000      1.61300000    0.0907   26.8477
     H     -6.50330000      0.16910000      0.33670000    0.0491   28.3552
     H     -4.39340000     -1.31500000     -0.95530000   -0.0067   21.5322
     H     -3.38120000     -1.05990000      2.84500000   -0.0071   23.0693
