16
chgs=0 nmr=1 alpha=55.2 b3lypd3vdz=-308.704658931657 
     C     -2.54580000     -3.08320000     -1.64360000    0.2067  -13.3715
     O     -1.85310000     -3.71080000     -2.46200000   -0.2249 -426.5761
     O      0.17140000     -2.23790000     -3.52280000   -0.2998  248.3727
     C      1.41510000     -4.27320000     -3.04150000   -0.0091  165.3633
     C      1.51630000     -2.25140000     -1.46470000    0.0096  163.7565
     C      1.36760000     -2.75080000     -2.94330000    0.0439  124.8671
     H     -3.26280000     -2.32260000     -1.98630000    0.0383   21.2743
     H     -2.43150000     -3.20220000     -0.55600000    0.0390   21.1589
     H     -0.55590000     -2.85860000     -3.27480000    0.1508   30.5781
     H      1.34630000     -4.57280000     -4.09850000    0.0172   29.9514
     H      2.34810000     -4.66960000     -2.61180000    0.0070   30.4479
     H      0.56830000     -4.72120000     -2.50170000    0.0145   29.9147
     H      2.30700000     -2.84320000     -0.97730000   -0.0002   30.6347
     H      2.19480000     -2.32230000     -3.53340000   -0.0053   27.6496
     H      0.58470000     -2.42140000     -0.90500000   -0.0048   30.9681
     H      1.82450000     -1.19670000     -1.41380000    0.0171   29.9885
