14
chgs=0 nmr=1 alpha=49.65 b3lypd3vdz=-303.710328911072 
     N      3.18890000      3.51260000      1.46050000   -0.2226  263.6822
     C      2.37390000      2.32220000      1.61150000    0.1064  147.7588
     C      0.90310000      2.70560000      1.48210000    0.1208   26.0410
     O      0.49730000      3.84920000      1.74780000   -0.2978  -37.7927
     N      0.09590000      1.69900000      1.09290000   -0.1534  154.9171
     C     -1.35040000      1.82310000      1.05140000    0.0638  165.7018
     H      2.70330000      4.40390000      1.49810000    0.0888   30.3599
     H      2.62670000      1.62560000      0.80080000   -0.0020   28.5370
     H      0.50170000      0.84260000      0.71010000    0.0859   27.2978
     H     -1.61820000      2.64140000      1.72800000    0.0555   27.5211
     H      4.10140000      3.46040000      1.05490000    0.0691   32.2838
     H      2.56610000      1.80640000      2.56390000    0.0295   27.9077
     H     -1.75410000      0.85570000      1.38500000    0.0231   29.1336
     H     -1.73350000      2.04110000      0.04360000    0.0329   28.9817
