13
chgs=0 nmr=1 alpha=47.09 b3lypd3vdz=-323.569869348565 
     C      1.94450000     -0.78610000     -1.39400000    0.1994  -10.4711
     O      1.25770000      0.07870000     -0.82990000   -0.2060 -425.7609
     N      0.09590000      1.69900000      1.09290000   -0.0565  162.0268
     C      2.37390000      2.32220000      1.61150000   -0.0102  169.8096
     C      0.90310000      2.70560000      1.48210000    0.0362   29.7224
     O      0.49730000      3.84920000      1.74780000   -0.2915  -81.4715
     H      1.63630000     -1.84080000     -1.44490000    0.0345   21.3138
     H      2.90130000     -0.55550000     -1.88520000    0.0364   21.3246
     H      0.50170000      0.84260000      0.71010000    0.0842   24.3706
     H      2.62670000      1.62560000      0.80080000    0.0092   30.0832
     H     -0.90000000      1.78450000      1.06430000    0.0825   27.6430
     H      2.99190000      3.22490000      1.49700000    0.0370   29.9713
     H      2.56610000      1.80640000      2.56390000    0.0448   29.6506
