16
chgs=0 nmr=1 alpha=63.8 b3lypd3vdz=-325.75151629395 
     C      2.37390000      2.32220000      1.61150000    0.0235  151.1009
     C      0.90310000      2.70560000      1.48210000    0.0675   27.9661
     O      0.49730000      3.84920000      1.74780000   -0.2833  -69.6192
     C      2.64600000      1.59200000      2.95990000    0.0622  155.8993
     C      2.08100000      0.19180000      3.00120000   -0.1109   42.0721
     C      0.98480000     -0.15760000      3.80220000    0.0065   60.3688
     N      0.09590000      1.69900000      1.09290000   -0.0398  160.8055
     H      2.62670000      1.62560000      0.80080000   -0.0008   29.9965
     H      3.74190000      1.55800000      3.06080000    0.0198   28.9954
     H      2.25480000      2.20950000      3.78430000    0.0214   29.0094
     H      0.53070000      0.59650000      4.45220000    0.0218   25.4946
     H      0.50170000      0.84260000      0.71010000    0.0912   27.6250
     H      2.99190000      3.22490000      1.49700000    0.0242   29.3523
     H      2.51990000     -0.59030000      2.36420000   -0.0122   24.9102
     H      0.57050000     -1.17650000      3.79170000    0.0207   25.4526
     H     -0.90000000      1.78450000      1.06430000    0.0881   27.7655
