20
chgs=0 nmr=1 alpha=60.17 b3lypd3vdz=-311.101336095309 
     C     -1.35040000      1.82310000      1.05140000   -0.0568  181.8164
     C     -1.88600000      2.12790000     -0.35750000   -0.0820  182.9640
     C     -2.83870000     -1.09330000     -3.13790000    0.0967  144.2176
     O     -1.71160000     -0.46870000     -2.50910000   -0.2950  337.3066
     O      0.17140000     -2.23790000     -3.52280000   -0.2916  317.7592
     C      1.36760000     -2.75080000     -2.94330000    0.0961  141.5830
     H     -1.61820000      2.64140000      1.72800000    0.0116   30.5916
     H     -1.37820000      3.00360000     -0.78400000    0.0054   30.8410
     H     -1.69840000      1.28000000     -1.04010000    0.0437   29.0771
     H     -0.25490000      1.72910000      1.08280000    0.0089   30.7083
     H     -1.75410000      0.85570000      1.38500000    0.0149   30.4607
     H     -2.96960000      2.31430000     -0.32560000    0.0076   30.7894
     H     -2.49380000     -1.73900000     -3.96220000    0.0010   28.3783
     H     -0.90150000     -0.86780000     -2.89010000    0.1375   28.6116
     H     -3.34220000     -1.75290000     -2.41580000    0.0098   28.1519
     H     -3.51190000     -0.31800000     -3.53260000    0.0296   27.9537
     H     -0.55590000     -2.85860000     -3.27480000    0.1651   31.2252
     H      2.19480000     -2.32230000     -3.53340000    0.0412   27.7177
     H      1.47190000     -2.40040000     -1.90580000    0.0300   27.6041
     H      1.40180000     -3.84800000     -3.01410000    0.0263   27.7805
