16
chgs=0 nmr=1 alpha=59.57 b3lypd3vdz=-271.567800156444 
     C      0.45840000     -1.45210000      3.78880000   -0.0661   56.3724
     C      1.01760000     -2.42980000      2.95410000   -0.0568   55.0228
     C     -3.06370000     -0.92600000      3.11590000   -0.0496  149.3410
     C     -4.17810000     -1.39590000      2.16520000    0.1542  -11.8912
     O     -4.36040000     -2.59610000      1.96420000   -0.2099 -373.7163
     C     -3.54840000     -0.67920000      4.55730000   -0.0372  180.8616
     H     -0.38490000     -1.72720000      4.42550000    0.0383   25.0764
     H      0.87270000     -0.43320000      3.79930000    0.0274   25.0102
     H      1.88690000     -2.17120000      2.33170000    0.0325   24.9132
     H      0.56610000     -3.43290000      2.95190000    0.0350   24.8828
     H     -2.29450000     -1.70630000      3.05990000    0.0362   29.1572
     H     -4.39500000     -1.32650000      4.82530000    0.0335   30.5207
     H     -2.72210000     -0.89730000      5.25360000    0.0327   29.9806
     H     -2.64250000      0.04720000      2.82370000    0.0117   28.9798
     H     -4.78910000     -0.61280000      1.69260000   -0.0126   21.0814
     H     -3.78740000      0.39440000      4.57090000    0.0307   29.8033
