14
chgs=0 nmr=1 alpha=49.77 b3lypd3vdz=-303.700820485206 
     N      0.09590000      1.69900000      1.09290000   -0.2274  259.5359
     C     -1.35040000      1.82310000      1.05140000    0.1286  151.3960
     C     -1.91270000      0.47570000      1.51600000    0.0933   25.7105
     O     -1.83470000     -0.51030000      0.76680000   -0.3005  -51.5489
     N     -2.50100000      0.37410000      2.72560000   -0.1270  163.4874
     C     -2.78870000      1.44460000      3.69700000    0.0571  159.9141
     H      0.50170000      0.84260000      0.71010000    0.0914   31.1460
     H     -1.61820000      2.64140000      1.72800000   -0.0077   28.0825
     H     -1.88090000      1.68360000      4.27730000    0.0396   28.2801
     H     -3.13200000      2.35020000      3.17990000    0.0475   28.3847
     H      0.69480000      2.44590000      1.38170000    0.0748   31.6087
     H     -1.73350000      2.04110000      0.04360000    0.0178   28.1399
     H     -2.88390000     -0.51070000      2.99120000    0.0779   27.9858
     H     -3.57200000      0.99770000      4.32680000    0.0347   28.7086
