14
chgs=0 nmr=1 alpha=49.24 b3lypd3vdz=-303.714331649539 
     N      0.29000000     -2.47520000     -0.72790000   -0.1663  242.8399
     C      1.51630000     -2.25140000     -1.46470000   -0.0350  139.0541
     C      1.94450000     -0.78610000     -1.39400000    0.1093   22.8680
     O      1.25770000      0.07870000     -0.82990000   -0.2688  -86.6415
     C      1.36760000     -2.75080000     -2.94330000    0.0378  162.7138
     N      3.11920000     -0.50300000     -1.99710000   -0.0422  174.3055
     H     -0.46940000     -1.80640000     -0.84560000    0.0858   30.4803
     H      2.30700000     -2.84320000     -0.97730000    0.0078   28.3737
     H      2.19480000     -2.32230000     -3.53340000   -0.0156   30.2363
     H      3.66780000     -1.30950000     -2.29190000    0.0864   27.8584
     H      0.13210000     -3.33170000     -0.23650000    0.0708   31.1038
     H      0.44400000     -2.35480000     -3.39070000    0.0213   30.3928
     H      1.40180000     -3.84800000     -3.01410000    0.0165   29.9202
     H      3.69420000      0.28340000     -1.77130000    0.0924   27.7839
