17
chgs=0 nmr=1 alpha=72.06 b3lypd3vdz=-309.619417877344 
     C      6.02880000     -1.42020000     -0.11300000   -0.0412   40.9146
     C      6.25690000     -2.82580000     -0.09490000   -0.0150   60.5056
     C      6.04520000     -0.70090000      1.09900000    0.0015   55.8578
     C      6.26560000     -1.40060000      2.28170000   -0.0028   75.3797
     C      5.13490000      4.75780000      0.58520000   -0.0416  163.1401
     C      4.42820000      3.44170000      0.90960000    0.1278  -12.7520
     O      4.96590000      2.35460000      0.66000000   -0.2006 -392.2905
     H      5.87840000      0.37770000      1.10230000   -0.0110   23.5540
     H      6.27140000     -0.86200000      3.23210000    0.0088   26.3117
     H      5.88110000     -1.12740000     -1.16300000   -0.0228   23.9475
     H      6.21640000     -3.17810000     -1.13620000    0.0080   25.3545
     H      6.42920000     -3.37890000      0.84020000    0.0176   22.8066
     H      6.42710000     -2.48870000      2.28190000    0.0146   23.6954
     H      5.99190000      4.83530000      1.27870000    0.0642   29.4858
     H      4.47090000      5.61460000      0.77610000    0.0259   29.2598
     H      5.50070000      4.80480000     -0.45110000    0.0620   29.3473
     H      3.42440000      3.49910000      1.35580000    0.0046   21.0019
