15
chgs=0 nmr=1 alpha=53.79 b3lypd3vdz=-287.690149802859 
     C      1.51630000     -2.25140000     -1.46470000    0.0267  147.1548
     C      1.94450000     -0.78610000     -1.39400000    0.0567   24.5941
     O      1.25770000      0.07870000     -0.82990000   -0.2713 -105.2804
     C      1.36760000     -2.75080000     -2.94330000   -0.0573  163.8858
     C      1.41510000     -4.27320000     -3.04150000   -0.0055  174.1040
     N      3.11920000     -0.50300000     -1.99710000   -0.0471  174.5144
     H      2.30700000     -2.84320000     -0.97730000    0.0124   29.7505
     H      2.19480000     -2.32230000     -3.53340000    0.0012   29.9918
     H      1.34630000     -4.57280000     -4.09850000    0.0167   30.1462
     H      2.34810000     -4.66960000     -2.61180000    0.0156   30.6424
     H      0.56830000     -4.72120000     -2.50170000    0.0250   30.4159
     H      3.66780000     -1.30950000     -2.29190000    0.0845   27.7908
     H      0.58470000     -2.42140000     -0.90500000    0.0259   29.3415
     H      0.44400000     -2.35480000     -3.39070000    0.0240   29.6699
     H      3.69420000      0.28340000     -1.77130000    0.0925   27.9166
