13
chgs=0 nmr=1 alpha=42.73 b3lypd3vdz=-174.319030310356 
     C      2.08100000      0.19180000      3.00120000   -0.0572   56.7005
     C      2.64120000     -0.80650000      2.18810000   -0.0717   56.3286
     N      3.11920000     -0.50300000     -1.99710000   -0.2377  263.6525
     C      3.96600000      0.65520000     -1.66450000    0.0417  162.6171
     H      3.50920000     -0.57500000      1.56880000    0.0381   25.0739
     H      2.49250000      1.21150000      2.97110000    0.0324   24.8292
     H      1.22090000     -0.08240000      3.62970000    0.0310   24.9540
     H      2.23470000     -1.82840000      2.16590000    0.0290   24.9788
     H      3.66780000     -1.30950000     -2.29190000    0.0749   31.5774
     H      3.89510000      0.83610000     -0.58100000    0.0056   28.3853
     H      2.24940000     -0.71260000     -1.55050000    0.0755   32.0620
     H      3.68100000      1.60630000     -2.13800000    0.0170   28.9043
     H      5.01370000      0.41680000     -1.90020000    0.0216   29.1180
