14
chgs=0 nmr=1 alpha=50.29 b3lypd3vdz=-307.495365821902 
     C      4.42820000      3.44170000      0.90960000    0.1861   -6.7182
     O      4.96590000      2.35460000      0.66000000   -0.1990 -456.9578
     C      3.96600000      0.65520000     -1.66450000   -0.0938  149.5026
     C      3.56570000      1.99100000     -2.32950000    0.1578   -9.7761
     O      4.40780000      2.72380000     -2.83520000   -0.2076 -350.3557
     C      5.43980000      0.31980000     -1.99600000   -0.0123  180.2132
     H      4.93670000      4.38870000      0.67620000    0.0322   21.5319
     H      3.42440000      3.49910000      1.35580000    0.0216   21.4437
     H      3.89510000      0.83610000     -0.58100000    0.0475   28.9398
     H      5.58910000      0.39330000     -3.08410000    0.0215   30.4010
     H      6.04570000      1.11050000     -1.53420000    0.0340   29.7344
     H      3.33350000     -0.20980000     -1.91290000    0.0198   29.0928
     H      2.49780000      2.24810000     -2.27050000   -0.0173   21.2997
     H      5.72960000     -0.67490000     -1.62650000    0.0095   30.5795
