16
chgs=0 nmr=1 alpha=56.95 b3lypd3vdz=-362.858841755542 
     C      4.42820000      3.44170000      0.90960000    0.1902   -5.6337
     O      4.96590000      2.35460000      0.66000000   -0.1974 -454.6245
     N      2.23970000      2.31020000     -2.25620000   -0.0721  169.4538
     C      3.96600000      0.65520000     -1.66450000   -0.0786  161.5219
     C      3.56570000      1.99100000     -2.32950000    0.0831   27.0773
     O      4.40780000      2.72380000     -2.83520000   -0.2681  -64.9370
     C      5.43980000      0.31980000     -1.99600000    0.0033  178.6496
     H      4.93670000      4.38870000      0.67620000    0.0308   21.4636
     H      3.42440000      3.49910000      1.35580000    0.0155   21.3870
     H      1.62560000      1.68770000     -1.72520000    0.0927   27.4327
     H      3.89510000      0.83610000     -0.58100000    0.0421   29.1323
     H      5.58910000      0.39330000     -3.08410000    0.0227   30.3405
     H      6.04570000      1.11050000     -1.53420000    0.0346   29.7514
     H      1.90410000      3.20400000     -2.55380000    0.0866   27.8490
     H      3.33350000     -0.20980000     -1.91290000    0.0128   29.6895
     H      5.72960000     -0.67490000     -1.62650000    0.0018   30.6456
