13
chgs=0 nmr=1 alpha=46.52 b3lypd3vdz=-323.575323103873 
     C      0.07660000     -3.63300000     -0.06370000    0.1941   36.7091
     O      0.98870000     -4.40750000      0.25670000   -0.2886 -108.1048
     N      0.29000000     -2.47520000     -0.72790000   -0.1393  150.1144
     C      1.51630000     -2.25140000     -1.46470000    0.0701  150.8943
     C      1.36760000     -2.75080000     -2.94330000    0.1311  128.2703
     O      0.17140000     -2.23790000     -3.52280000   -0.2892  307.0496
     H     -0.46940000     -1.80640000     -0.84560000    0.0866   26.6093
     H      2.30700000     -2.84320000     -0.97730000    0.0384   27.0359
     H      2.19480000     -2.32230000     -3.53340000    0.0220   27.9943
     H     -0.55590000     -2.85860000     -3.27480000    0.1419   30.5912
     H     -0.95650000     -3.91430000      0.18850000   -0.0117   23.0304
     H      1.82450000     -1.19670000     -1.41380000    0.0215   28.8739
     H      1.40180000     -3.84800000     -3.01410000    0.0232   27.8484
