17
chgs=0 nmr=1 alpha=65.52 b3lypd3vdz=-251.665431421394 
     N      3.11920000     -0.50300000     -1.99710000   -0.2386  263.5936
     C      3.96600000      0.65520000     -1.66450000    0.0410  162.5449
     C      2.08100000      0.19180000      3.00120000    0.0009   70.5945
     C      2.64120000     -0.80650000      2.18810000   -0.0298   54.0998
     C      2.12680000     -2.09980000      2.16000000   -0.0219   55.3551
     C      1.01760000     -2.42980000      2.95410000   -0.0055   69.8947
     H      3.66780000     -1.30950000     -2.29190000    0.0749   31.5952
     H      3.89510000      0.83610000     -0.58100000    0.0069   28.4380
     H      2.24940000     -0.71260000     -1.55050000    0.0770   32.0742
     H      3.68100000      1.60630000     -2.13800000    0.0176   28.9169
     H      5.01370000      0.41680000     -1.90020000    0.0217   29.1359
     H      3.50920000     -0.57500000      1.56880000   -0.0124   24.8767
     H      2.57640000     -2.86320000      1.52270000   -0.0211   24.9964
     H      2.49250000      1.21150000      2.97110000    0.0228   25.7261
     H      1.22090000     -0.08240000      3.62970000    0.0227   23.6388
     H      0.57880000     -1.66260000      3.60900000    0.0225   23.7600
     H      0.56610000     -3.43290000      2.95190000    0.0212   25.9055
