15
chgs=0 nmr=1 alpha=54.57 b3lypd3vdz=-287.594660219288 
     C      2.08100000      0.19180000      3.00120000   -0.0553   55.9741
     C      2.64120000     -0.80650000      2.18810000   -0.0758   57.0148
     N      3.11920000     -0.50300000     -1.99710000   -0.2202  260.8993
     C      3.96600000      0.65520000     -1.66450000    0.0418  135.1526
     C      3.56570000      1.99100000     -2.32950000    0.1727   -8.1136
     O      4.40780000      2.72380000     -2.83520000   -0.2062 -345.2619
     H      3.50920000     -0.57500000      1.56880000    0.0356   25.1536
     H      2.49250000      1.21150000      2.97110000    0.0338   24.8115
     H      1.22090000     -0.08240000      3.62970000    0.0336   24.9056
     H      2.23470000     -1.82840000      2.16590000    0.0307   24.9822
     H      3.66780000     -1.30950000     -2.29190000    0.0881   31.1002
     H      3.89510000      0.83610000     -0.58100000    0.0268   27.7746
     H      2.24940000     -0.71260000     -1.55050000    0.0807   31.3597
     H      5.01370000      0.41680000     -1.90020000    0.0315   28.4065
     H      2.49780000      2.24810000     -2.27050000   -0.0180   21.5219
