20
chgs=0 nmr=1 alpha=71.69 b3lypd3vdz=-236.831059112976 
     C      2.64120000     -0.80650000      2.18810000   -0.0680   58.1274
     C      2.12680000     -2.09980000      2.16000000   -0.0580   59.7144
     C      1.51630000     -2.25140000     -1.46470000   -0.0708  178.5933
     C      1.36760000     -2.75080000     -2.94330000   -0.0648  181.3083
     C      6.02880000     -1.42020000     -0.11300000   -0.0796   57.1478
     C      6.04520000     -0.70090000      1.09900000   -0.0411   60.1835
     H      3.50920000     -0.57500000      1.56880000    0.0354   25.0813
     H      2.57640000     -2.86320000      1.52270000    0.0292   25.3668
     H      2.20230000     -0.02440000      2.82510000    0.0223   25.2472
     H      1.25750000     -2.35840000      2.78240000    0.0245   25.3197
     H      2.30700000     -2.84320000     -0.97730000    0.0219   30.4528
     H      2.19480000     -2.32230000     -3.53340000    0.0170   30.4140
     H      0.58470000     -2.42140000     -0.90500000    0.0237   30.4680
     H      1.82450000     -1.19670000     -1.41380000    0.0253   30.4526
     H      0.44400000     -2.35480000     -3.39070000    0.0201   30.4692
     H      1.40180000     -3.84800000     -3.01410000    0.0227   30.4555
     H      5.87840000      0.37770000      1.10230000    0.0393   25.1434
     H      5.88110000     -1.12740000     -1.16300000    0.0322   24.8403
     H      6.20500000     -2.50590000     -0.09900000    0.0269   25.4069
     H      6.21940000     -1.25390000      2.03380000    0.0418   24.8184
