16
chgs=0 nmr=1 alpha=67.4 b3lypd3vdz=-234.418448486263 
     C      2.64120000     -0.80650000      2.18810000   -0.0595   55.4814
     C      2.12680000     -2.09980000      2.16000000   -0.0608   60.8684
     C      6.04520000     -0.70090000      1.09900000   -0.0007   73.0082
     C      6.47650000     -3.53090000      1.09720000    0.0081   72.3546
     C      6.26560000     -1.40060000      2.28170000   -0.0172   53.3402
     C      6.47310000     -2.79860000      2.28190000   -0.0258   54.6119
     H      3.50920000     -0.57500000      1.56880000    0.0307   24.9635
     H      2.57640000     -2.86320000      1.52270000    0.0259   25.3699
     H      2.20230000     -0.02440000      2.82510000    0.0210   25.1249
     H      1.25750000     -2.35840000      2.78240000    0.0234   25.3905
     H      5.87840000      0.37770000      1.10230000    0.0254   26.0241
     H      6.64460000     -4.61050000      1.09690000    0.0212   25.8443
     H      6.27140000     -0.86200000      3.23210000   -0.0173   25.0132
     H      6.63660000     -3.31610000      3.23010000   -0.0184   25.0025
     H      6.03240000     -1.26230000      0.15310000    0.0230   23.8718
     H      6.30420000     -2.97780000      0.16210000    0.0209   23.7980
