18
chgs=0 nmr=1 alpha=65.73 b3lypd3vdz=-326.979061822422 
     C     -1.36200000     -4.02470000      0.28750000    0.0131  167.4432
     C      0.07660000     -3.63300000     -0.06370000    0.0785   27.5836
     O      0.98870000     -4.40750000      0.25670000   -0.2996  -66.3745
     N      0.29000000     -2.47520000     -0.72790000   -0.1296  140.5348
     C      1.51630000     -2.25140000     -1.46470000    0.0815  149.4129
     C      1.36760000     -2.75080000     -2.94330000   -0.0355  158.5457
     C      1.41510000     -4.27320000     -3.04150000   -0.0102  176.0325
     H     -1.46800000     -3.96920000      1.37910000    0.0500   29.4411
     H     -1.43760000     -5.08370000     -0.00650000    0.0545   29.2075
     H     -0.46940000     -1.80640000     -0.84560000    0.0811   26.8804
     H      2.30700000     -2.84320000     -0.97730000    0.0402   27.2109
     H      2.19480000     -2.32230000     -3.53340000    0.0015   29.9420
     H      1.34630000     -4.57280000     -4.09850000    0.0082   30.4446
     H      2.34810000     -4.66960000     -2.61180000    0.0305   30.4407
     H      0.56830000     -4.72120000     -2.50170000    0.0319   30.1819
     H     -2.15720000     -3.41840000     -0.17080000    0.0052   30.1376
     H      1.82450000     -1.19670000     -1.41380000    0.0046   28.8781
     H      0.44400000     -2.35480000     -3.39070000   -0.0058   30.4183
