10
chgs=0 nmr=1 alpha=44.75 b3lypd3vdz=-155.877012192486 
     C      0.98480000     -0.15760000      3.80220000    0.0024   72.2992
     C      2.12680000     -2.09980000      2.16000000    0.0074   70.9412
     C      0.45840000     -1.45210000      3.78880000   -0.0239   54.1209
     C      1.01760000     -2.42980000      2.95410000   -0.0309   52.8390
     H      0.53070000      0.59650000      4.45220000    0.0168   26.1642
     H      2.57640000     -2.86320000      1.52270000    0.0170   26.0857
     H     -0.38490000     -1.72720000      4.42550000   -0.0201   25.0250
     H      1.84490000      0.11660000      3.17370000    0.0237   23.7409
     H      2.53330000     -1.07790000      2.18220000    0.0248   23.5529
     H      0.56610000     -3.43290000      2.95190000   -0.0171   24.8662
