14
chgs=0 nmr=1 alpha=54.84 b3lypd3vdz=-361.662082772586 
     C     -5.95950000     -0.75220000      0.59260000   -0.0201  134.6173
     C     -5.44150000     -1.47950000     -0.66470000    0.2087  -12.8395
     O     -6.22450000     -2.15670000     -1.31890000   -0.2016 -341.7846
     C     -6.72760000      0.54920000      0.23110000    0.0054  172.0542
     C     -4.17810000     -1.39590000      2.16520000    0.2052   37.3649
     O     -4.36040000     -2.59610000      1.96420000   -0.2752 -108.7893
     N     -4.93360000     -0.42760000      1.58080000   -0.1372  127.1214
     H     -6.64650000     -1.48990000      1.03030000    0.0455   27.3838
     H     -7.60780000      0.64120000      0.88650000    0.0484   29.4110
     H     -6.07680000      1.40620000      0.44970000    0.0123   31.0546
     H     -4.60560000      0.53540000      1.61300000    0.0890   27.3028
     H     -4.39340000     -1.31500000     -0.95530000   -0.0146   21.4220
     H     -7.04570000      0.63100000     -0.81870000    0.0446   30.0625
     H     -3.38120000     -1.05990000      2.84500000   -0.0103   23.1401
