14
chgs=0 nmr=1 alpha=46.85 b3lypd3vdz=-249.538499226997 
     N      0.09590000      1.69900000      1.09290000   -0.2559  261.6283
     C     -1.35040000      1.82310000      1.05140000    0.0648  161.6111
     C      1.51630000     -2.25140000     -1.46470000   -0.0438  158.5795
     C      1.94450000     -0.78610000     -1.39400000    0.1383  -11.2224
     O      1.25770000      0.07870000     -0.82990000   -0.2025 -372.2780
     H      0.50170000      0.84260000      0.71010000    0.0754   28.7759
     H     -1.61820000      2.64140000      1.72800000    0.0087   28.8453
     H      0.69480000      2.44590000      1.38170000    0.0591   31.9480
     H     -1.75410000      0.85570000      1.38500000    0.0073   28.3410
     H     -1.73350000      2.04110000      0.04360000   -0.0051   28.3195
     H      2.30700000     -2.84320000     -0.97730000    0.0477   29.4494
     H      0.58470000     -2.42140000     -0.90500000    0.0473   29.2893
     H      1.41200000     -2.60180000     -2.50220000    0.0527   29.1564
     H      2.90130000     -0.55550000     -1.88520000    0.0060   21.2822
