16
chgs=0 nmr=1 alpha=58.57 b3lypd3vdz=-362.845841903944 
     C     -3.36750000      2.38270000     -0.31390000    0.1972   -5.7954
     O     -4.04740000      2.27800000      0.70320000   -0.1963 -402.9554
     C     -5.95950000     -0.75220000      0.59260000    0.0727  157.9212
     C     -6.72760000      0.54920000      0.23110000   -0.0678  178.4608
     C     -4.17810000     -1.39590000      2.16520000    0.1902   37.9995
     O     -4.36040000     -2.59610000      1.96420000   -0.2907 -106.3447
     N     -4.93360000     -0.42760000      1.58080000   -0.1610  128.8318
     H     -2.28390000      2.19630000     -0.34580000    0.0362   21.3753
     H     -3.79600000      2.66310000     -1.28740000    0.0309   21.4183
     H     -6.64650000     -1.48990000      1.03030000    0.0316   28.1974
     H     -7.60780000      0.64120000      0.88650000    0.0305   30.0197
     H     -6.07680000      1.40620000      0.44970000    0.0249   29.9301
     H     -4.60560000      0.53540000      1.61300000    0.0925   26.8826
     H     -5.59000000     -1.27100000     -0.30420000    0.0156   28.7319
     H     -7.04570000      0.63100000     -0.81870000    0.0175   30.4948
     H     -3.38120000     -1.05990000      2.84500000   -0.0239   23.3355
