13
chgs=0 nmr=1 alpha=64.79 b3lypd3vdz=-195.159110814836 
     C      6.02880000     -1.42020000     -0.11300000   -0.0174   38.2208
     C      6.25690000     -2.82580000     -0.09490000   -0.0034   30.8061
     C      6.47650000     -3.53090000      1.09720000   -0.0121   79.3049
     C      5.43980000      0.31980000     -1.99600000    0.0431  176.4226
     C      5.83470000     -1.03550000     -1.49250000   -0.0940   31.5566
     H      6.64460000     -4.61050000      1.09690000    0.0162   26.4128
     H      5.58910000      0.39330000     -3.08410000    0.0271   29.8418
     H      6.04570000      1.11050000     -1.53420000    0.0358   29.3495
     H      6.04160000     -0.85880000      0.83290000   -0.0189   24.0565
     H      6.21640000     -3.17810000     -1.13620000   -0.0309   23.8663
     H      6.47380000     -2.95250000      2.03290000    0.0104   26.0351
     H      4.39210000      0.55820000     -1.76030000    0.0466   29.3219
     H      5.93480000     -1.95560000     -2.08700000   -0.0025   23.9560
