4
chgs=0 nmr=1 alpha=8.72 b3lypd3vdz=-56.518136710849 
     N      5.62010000      4.82020000     -0.78950000   -0.2097  272.1523
     H      6.12690000      3.95360000     -0.98840000    0.0700   31.9350
     H      4.80970000      4.78470000     -1.41320000    0.0698   31.9451
     H      5.28760000      4.77740000      0.15260000    0.0698   32.3624
