21
chgs=0 nmr=1 alpha=82.56 b3lypd3vdz=-274.924633928017 
     C     -3.06370000     -0.92600000      3.11590000   -0.0207  163.6937
     C     -3.54840000     -0.67920000      4.55730000   -0.0665  173.6645
     C     -3.88230000      0.82070000      4.57630000   -0.0191  162.7367
     C      2.64120000     -0.80650000      2.18810000    0.0058   72.9782
     C      2.12680000     -2.09980000      2.16000000   -0.0174   55.9802
     C      0.45840000     -1.45210000      3.78880000    0.0023   67.7853
     C      1.01760000     -2.42980000      2.95410000   -0.0341   52.9378
     H     -2.29450000     -1.70630000      3.05990000    0.0080   29.6824
     H     -4.39500000     -1.32650000      4.82530000    0.0067   30.2463
     H     -2.72210000     -0.89730000      5.25360000    0.0099   30.1605
     H     -4.86980000      0.99170000      4.11760000    0.0204   29.7431
     H     -3.89940000      1.24920000      5.58850000    0.0079   29.8566
     H     -2.64250000      0.04720000      2.82370000    0.0113   30.4830
     H     -3.86060000     -1.26200000      2.43610000    0.0158   29.8034
     H     -3.09900000      1.26760000      3.94650000    0.0172   30.3592
     H      3.50920000     -0.57500000      1.56880000    0.0159   26.2117
     H      2.57640000     -2.86320000      1.52270000   -0.0190   25.0553
     H     -0.38490000     -1.72720000      4.42550000    0.0279   25.8406
     H      2.20230000     -0.02440000      2.82510000    0.0234   23.7256
     H      0.87270000     -0.43320000      3.79930000    0.0207   23.4517
     H      0.56610000     -3.43290000      2.95190000   -0.0164   24.8279
