7
chgs=0 nmr=1 alpha=19.6 b3lypd3vdz=-95.786080637416 
     C     -5.95950000     -0.75220000      0.59260000    0.0560  162.0111
     N     -4.93360000     -0.42760000      1.58080000   -0.2430  263.7603
     H     -6.64650000     -1.48990000      1.03030000    0.0112   28.6835
     H     -4.60560000      0.53540000      1.61300000    0.0779   31.4846
     H     -5.59000000     -1.27100000     -0.30420000   -0.0001   28.6710
     H     -6.50330000      0.16910000      0.33670000    0.0248   28.9976
     H     -4.37810000     -1.13950000      2.01050000    0.0732   32.2245
