13
chgs=0 nmr=1 alpha=47.38 b3lypd3vdz=-323.578406467817 
     C     -5.44150000     -1.47950000     -0.66470000    0.2029   39.5025
     O     -6.22450000     -2.15670000     -1.31890000   -0.2805  -84.6864
     N     -4.14050000     -1.27530000     -1.02540000   -0.1476  142.8833
     C     -3.54700000     -2.02120000     -2.12210000    0.0910  149.5264
     C     -2.83870000     -1.09330000     -3.13790000    0.1232  125.5074
     O     -1.71160000     -0.46870000     -2.50910000   -0.2939  308.2201
     H     -3.49920000     -0.77170000     -0.41380000    0.0898   26.3324
     H     -4.37040000     -2.54620000     -2.62940000    0.0350   26.9973
     H     -2.49380000     -1.73900000     -3.96220000    0.0040   27.7818
     H     -0.90150000     -0.86780000     -2.89010000    0.1501   30.9066
     H     -5.81100000     -0.96070000      0.23210000   -0.0125   23.1871
     H     -2.83000000     -2.78180000     -1.77940000    0.0120   28.9995
     H     -3.51190000     -0.31800000     -3.53260000    0.0265   27.7698
