15
chgs=0 nmr=1 alpha=54.79 b3lypd3vdz=-287.593848852872 
     C      0.98480000     -0.15760000      3.80220000   -0.0542   57.8637
     C      0.45840000     -1.45210000      3.78880000   -0.0587   58.8669
     N     -2.50100000      0.37410000      2.72560000   -0.2066  258.3818
     C     -3.06370000     -0.92600000      3.11590000    0.0401  135.7146
     C     -4.17810000     -1.39590000      2.16520000    0.1501  -17.1837
     O     -4.36040000     -2.59610000      1.96420000   -0.2100 -381.7872
     H      0.53070000      0.59650000      4.45220000    0.0219   25.2490
     H     -0.38490000     -1.72720000      4.42550000    0.0359   25.0431
     H      1.84490000      0.11660000      3.17370000    0.0285   25.0517
     H      0.89720000     -2.21930000      3.13390000    0.0286   25.1206
     H     -2.29450000     -1.70630000      3.05990000    0.0362   28.2222
     H     -2.06490000      0.44940000      1.82890000    0.0870   30.7669
     H     -2.69620000      1.10040000      3.38470000    0.0841   30.6174
     H     -3.40980000     -0.74980000      4.14510000    0.0391   28.2435
     H     -4.78910000     -0.61280000      1.69260000   -0.0221   21.2743
