4
chgs=0 nmr=1 alpha=7.88 b3lypd3vdz=-56.507913561908 
     N     -4.14050000     -1.27530000     -1.02540000   -0.2576  281.4174
     H     -3.49920000     -0.77170000     -0.41380000    0.0882   31.4447
     H     -5.09330000     -1.42480000     -0.76120000    0.0870   31.6457
     H     -3.73200000     -1.78860000     -1.78020000    0.0824   31.9374
