15
chgs=0 nmr=1 alpha=53.3 b3lypd3vdz=-378.881244043687 
     C     -1.91270000      0.47570000      1.51600000    0.1897  -11.1703
     O     -1.83470000     -0.51030000      0.76680000   -0.2115 -469.3147
     N     -4.14050000     -1.27530000     -1.02540000   -0.2362  247.6393
     C     -3.54700000     -2.02120000     -2.12210000    0.1034  145.6051
     C     -2.54580000     -3.08320000     -1.64360000    0.0449   24.6572
     O     -1.85310000     -3.71080000     -2.46200000   -0.3030  -53.6316
     N     -2.40610000     -3.22870000     -0.31420000   -0.0322  164.8482
     H     -1.50900000      1.44310000      1.18240000    0.0340   21.1912
     H     -2.39240000      0.39280000      2.50240000    0.0292   21.1204
     H     -3.49920000     -0.77170000     -0.41380000    0.0825   31.2095
     H     -4.37040000     -2.54620000     -2.62940000    0.0386   28.4863
     H     -3.05840000     -2.77050000      0.31520000    0.0622   25.1023
     H     -5.09330000     -1.42480000     -0.76120000    0.0751   31.1036
     H     -3.04350000     -1.36160000     -2.84420000    0.0390   28.0348
     H     -1.68320000     -3.77990000      0.10240000    0.0842   27.5090
