10
chgs=0 nmr=1 alpha=45.33 b3lypd3vdz=-155.870479992339 
     C      6.02880000     -1.42020000     -0.11300000   -0.0155   68.4810
     C      6.04520000     -0.70090000      1.09900000    0.0012   59.8790
     C      6.26560000     -1.40060000      2.28170000   -0.0245   53.5398
     C      6.47310000     -2.79860000      2.28190000   -0.0024   68.9327
     H      5.87840000      0.37770000      1.10230000   -0.0175   25.0718
     H      6.27140000     -0.86200000      3.23210000   -0.0168   24.9235
     H      6.63660000     -3.31610000      3.23010000    0.0175   26.0574
     H      5.88110000     -1.12740000     -1.16300000    0.0172   25.6839
     H      6.20500000     -2.50590000     -0.09900000    0.0153   24.0369
     H      6.47580000     -3.37700000      1.34620000    0.0254   23.7702
