10
chgs=0 nmr=1 alpha=36.03 b3lypd3vdz=-193.041992610896 
     C     -6.72760000      0.54920000      0.23110000   -0.0386  183.2621
     C     -7.17340000      0.66390000     -1.24020000   -0.0347  153.6783
     C     -7.71910000      2.04180000     -1.51110000    0.1453    0.2944
     O     -8.86560000      2.36260000     -1.68260000   -0.1826 -315.7497
     H     -7.60780000      0.64120000      0.88650000    0.0387   30.6731
     H     -6.07680000      1.40620000      0.44970000    0.0222   30.3154
     H     -6.30940000      0.50900000     -1.90500000    0.0251   29.4346
     H     -7.93760000     -0.07880000     -1.49670000    0.0219   29.6540
     H     -6.18380000     -0.37210000      0.48700000    0.0327   30.2426
     H     -6.91510000      2.79240000     -1.52410000   -0.0300   21.8449
