4
chgs=0 nmr=1 alpha=13.34 b3lypd3vdz=-114.447672509604 
     C     -1.91270000      0.47570000      1.51600000    0.1757   -5.8049
     O     -1.83470000     -0.51030000      0.76680000   -0.2112 -498.5890
     H     -1.50900000      1.44310000      1.18240000    0.0174   21.2481
     H     -2.39240000      0.39280000      2.50240000    0.0182   21.2190
