13
chgs=0 nmr=1 alpha=43.08 b3lypd3vdz=-174.315380720648 
     C      0.45840000     -1.45210000      3.78880000   -0.0426   53.0164
     C      1.01760000     -2.42980000      2.95410000   -0.0703   58.9068
     N     -2.50100000      0.37410000      2.72560000   -0.2334  266.4566
     C     -3.06370000     -0.92600000      3.11590000    0.0406  159.9498
     H     -0.38490000     -1.72720000      4.42550000    0.0328   24.8946
     H      0.87270000     -0.43320000      3.79930000    0.0269   24.6528
     H      1.88690000     -2.17120000      2.33170000    0.0274   25.0574
     H      0.56610000     -3.43290000      2.95190000    0.0276   25.0139
     H     -2.29450000     -1.70630000      3.05990000    0.0127   28.4592
     H     -2.06490000      0.44940000      1.82890000    0.0794   31.9000
     H     -2.69620000      1.10040000      3.38470000    0.0772   31.1740
     H     -3.86060000     -1.26200000      2.43610000    0.0043   28.6865
     H     -3.40980000     -0.74980000      4.14510000    0.0174   29.0553
