9
chgs=0 nmr=1 alpha=34.29 b3lypd3vdz=-117.821438679906 
     C      5.96040000     -2.19040000     -2.23880000   -0.0208   65.1950
     C      5.43980000      0.31980000     -1.99600000    0.0374  173.9650
     C      5.83470000     -1.03550000     -1.49250000   -0.1179   47.3155
     H      5.91250000     -2.32370000     -3.31810000    0.0054   25.6106
     H      5.58910000      0.39330000     -3.08410000    0.0251   29.4953
     H      6.04570000      1.11050000     -1.53420000    0.0283   29.7801
     H      6.15540000     -3.04570000     -1.57510000    0.0121   25.9738
     H      4.39210000      0.55820000     -1.76030000    0.0418   29.5934
     H      5.98240000     -1.32830000     -0.44250000   -0.0113   24.8562
