7
chgs=0 nmr=1 alpha=19.5 b3lypd3vdz=-95.78644818269 
     N     -4.14050000     -1.27530000     -1.02540000   -0.2429  264.1766
     C     -3.54700000     -2.02120000     -2.12210000    0.0528  162.1266
     H     -3.49920000     -0.77170000     -0.41380000    0.0790   31.8969
     H     -4.37040000     -2.54620000     -2.62940000    0.0178   29.0075
     H     -5.09330000     -1.42480000     -0.76120000    0.0757   31.4621
     H     -2.83000000     -2.78180000     -1.77940000    0.0042   28.6170
     H     -3.04350000     -1.36160000     -2.84420000    0.0134   28.6689
