17
chgs=0 nmr=1 alpha=79.87 b3lypd3vdz=-309.61128188433 
     C      4.42820000      3.44170000      0.90960000    0.1808   -5.9742
     O      4.96590000      2.35460000      0.66000000   -0.2035 -471.7635
     C      6.02880000     -1.42020000     -0.11300000   -0.0124   37.8760
     C      6.25690000     -2.82580000     -0.09490000   -0.0035   30.0924
     C      6.47650000     -3.53090000      1.09720000   -0.0159   80.7716
     C      5.43980000      0.31980000     -1.99600000    0.0485  175.6341
     C      5.83470000     -1.03550000     -1.49250000   -0.1014   30.1654
     H      4.93670000      4.38870000      0.67620000    0.0200   21.2870
     H      3.42440000      3.49910000      1.35580000    0.0212   21.2583
     H      6.64460000     -4.61050000      1.09690000    0.0122   26.4770
     H      5.58910000      0.39330000     -3.08410000    0.0166   30.0212
     H      6.04570000      1.11050000     -1.53420000    0.0421   28.9526
     H      6.04160000     -0.85880000      0.83290000   -0.0137   23.6633
     H      6.21640000     -3.17810000     -1.13620000   -0.0333   23.8269
     H      6.47380000     -2.95250000      2.03290000    0.0082   26.0483
     H      4.39210000      0.55820000     -1.76030000    0.0419   29.4828
     H      5.93480000     -1.95560000     -2.08700000   -0.0078   23.9502
