13
chgs=0 nmr=1 alpha=42.26 b3lypd3vdz=-269.450390025051 
     C     -3.88230000      0.82070000      4.57630000   -0.0616  181.9156
     C     -2.78870000      1.44460000      3.69700000   -0.0589  180.4573
     C     -3.36750000      2.38270000     -0.31390000    0.2313   34.8840
     O     -4.04740000      2.27800000      0.70320000   -0.2536 -112.3015
     O     -3.88670000      2.72240000     -1.49350000   -0.1592  129.4865
     H     -4.86980000      0.99170000      4.11760000    0.0232   30.1339
     H     -3.89940000      1.24920000      5.58850000    0.0147   30.4262
     H     -1.88090000      1.68360000      4.27730000    0.0075   30.4239
     H     -3.13200000      2.35020000      3.17990000    0.0299   29.8361
     H     -3.64330000     -0.25290000      4.56270000    0.0152   30.0548
     H     -2.57400000      0.64570000      2.97200000    0.0111   30.1015
     H     -4.86380000      2.83350000     -1.40270000    0.1676   25.3553
     H     -2.28390000      2.19630000     -0.34580000    0.0327   23.6585
