16
chgs=0 nmr=1 alpha=69.81 b3lypd3vdz=-234.406700425272 
     C      6.02880000     -1.42020000     -0.11300000   -0.0795   57.2345
     C      6.04520000     -0.70090000      1.09900000   -0.0399   60.1788
     C      2.64120000     -0.80650000      2.18810000   -0.0022   70.7628
     C      2.12680000     -2.09980000      2.16000000   -0.0214   56.7058
     C      0.45840000     -1.45210000      3.78880000    0.0030   69.5721
     C      1.01760000     -2.42980000      2.95410000   -0.0325   52.5943
     H      5.87840000      0.37770000      1.10230000    0.0394   25.1333
     H      5.88110000     -1.12740000     -1.16300000    0.0314   24.8779
     H      6.20500000     -2.50590000     -0.09900000    0.0264   25.4660
     H      6.21940000     -1.25390000      2.03380000    0.0414   24.8130
     H      3.50920000     -0.57500000      1.56880000    0.0232   25.8869
     H      2.57640000     -2.86320000      1.52270000   -0.0227   25.1660
     H     -0.38490000     -1.72720000      4.42550000    0.0131   26.0676
     H      2.20230000     -0.02440000      2.82510000    0.0175   23.7947
     H      0.87270000     -0.43320000      3.79930000    0.0214   23.6076
     H      0.56610000     -3.43290000      2.95190000   -0.0185   24.8528
