17
chgs=0 nmr=1 alpha=78.14 b3lypd3vdz=-309.634962806377 
     C      6.02880000     -1.42020000     -0.11300000   -0.0411   34.0580
     C      6.04520000     -0.70090000      1.09900000    0.0029   51.5079
     C      6.26560000     -1.40060000      2.28170000   -0.0016   65.6172
     C      5.83470000     -1.03550000     -1.49250000   -0.0258   62.8034
     C      5.13490000      4.75780000      0.58520000   -0.0416  163.0383
     C      4.42820000      3.44170000      0.90960000    0.1280  -13.0366
     O      4.96590000      2.35460000      0.66000000   -0.2010 -391.2179
     H      5.87840000      0.37770000      1.10230000   -0.0151   22.8690
     H      6.27140000     -0.86200000      3.23210000    0.0112   26.0826
     H      6.20500000     -2.50590000     -0.09900000   -0.0259   24.3240
     H      6.42710000     -2.48870000      2.28190000    0.0138   25.7098
     H      5.54490000     -0.04080000     -1.86200000    0.0196   24.9652
     H      5.93480000     -1.95560000     -2.08700000    0.0185   25.6031
     H      5.99190000      4.83530000      1.27870000    0.0644   29.4297
     H      4.47090000      5.61460000      0.77610000    0.0262   29.2059
     H      5.50070000      4.80480000     -0.45110000    0.0625   29.2779
     H      3.42440000      3.49910000      1.35580000    0.0051   20.9346
