4
chgs=0 nmr=1 alpha=13.28 b3lypd3vdz=-114.448546857914 
     C     -7.71910000      2.04180000     -1.51110000    0.1787    7.4774
     O     -8.86560000      2.36260000     -1.68260000   -0.1793 -406.1512
     H     -7.32070000      1.03580000     -1.31330000    0.0042   21.4231
     H     -6.91510000      2.79240000     -1.52410000   -0.0036   21.7964
