9
chgs=0 nmr=1 alpha=31.4 b3lypd3vdz=-209.062295292008 
     N      0.29000000     -2.47520000     -0.72790000   -0.2127  260.2321
     C      1.51630000     -2.25140000     -1.46470000    0.0519  136.6990
     C      1.94450000     -0.78610000     -1.39400000    0.1564  -10.7793
     O      1.25770000      0.07870000     -0.82990000   -0.2119 -362.3620
     H     -0.46940000     -1.80640000     -0.84560000    0.0883   30.7004
     H      2.30700000     -2.84320000     -0.97730000    0.0358   27.9477
     H      0.13210000     -3.33170000     -0.23650000    0.0772   31.5498
     H      1.41200000     -2.60180000     -2.50220000    0.0270   27.2245
     H      2.90130000     -0.55550000     -1.88520000   -0.0120   21.4513
