7
chgs=0 nmr=1 alpha=24.82 b3lypd3vdz=-153.752570070564 
     C      1.75110000      3.61130000     -2.68940000   -0.0454  161.4912
     C      1.57950000      4.49420000     -1.45790000    0.1170   -0.6555
     O      2.47210000      5.11220000     -0.91980000   -0.1913 -347.0623
     H      2.50890000      4.05600000     -3.34560000    0.0468   29.7083
     H      0.79420000      3.49920000     -3.21900000    0.0310   29.3497
     H      2.12030000      2.62820000     -2.36210000    0.0597   29.5998
     H      0.55720000      4.43690000     -1.05590000   -0.0177   21.3384
