14
chgs=0 nmr=1 alpha=49.86 b3lypd3vdz=-303.714640390851 
     C     -5.95950000     -0.75220000      0.59260000    0.1023  142.8707
     C     -5.44150000     -1.47950000     -0.66470000    0.0984   26.5749
     O     -6.22450000     -2.15670000     -1.31890000   -0.2835  -44.6777
     N     -4.14050000     -1.27530000     -1.02540000   -0.1527  160.6966
     C     -3.54700000     -2.02120000     -2.12210000    0.0521  167.6387
     N     -4.93360000     -0.42760000      1.58080000   -0.2229  254.9624
     H     -6.64650000     -1.48990000      1.03030000    0.0365   27.9762
     H     -3.49920000     -0.77170000     -0.41380000    0.0605   25.8891
     H     -4.37040000     -2.54620000     -2.62940000    0.0508   27.1286
     H     -4.60560000      0.53540000      1.61300000    0.0846   30.7921
     H     -6.50330000      0.16910000      0.33670000    0.0488   28.2252
     H     -2.83000000     -2.78180000     -1.77940000    0.0229   29.3834
     H     -3.04350000     -1.36160000     -2.84420000    0.0234   29.3495
     H     -4.37810000     -1.13950000      2.01050000    0.0788   31.6696
