16
chgs=0 nmr=1 alpha=57.63 b3lypd3vdz=-362.82104221456 
     C      1.94450000     -0.78610000     -1.39400000    0.1784   -4.0129
     O      1.25770000      0.07870000     -0.82990000   -0.2005 -487.5530
     C     -1.91270000      0.47570000      1.51600000    0.2028   37.2126
     O     -1.83470000     -0.51030000      0.76680000   -0.3015 -125.7620
     N     -2.50100000      0.37410000      2.72560000   -0.2480  153.1563
     C     -3.06370000     -0.92600000      3.11590000    0.0820  147.0101
     C     -2.78870000      1.44460000      3.69700000    0.0722  150.2929
     H      1.63630000     -1.84080000     -1.44490000    0.0161   21.3208
     H      2.90130000     -0.55550000     -1.88520000    0.0075   21.2774
     H     -2.29450000     -1.70630000      3.05990000    0.0406   27.9623
     H     -1.88090000      1.68360000      4.27730000    0.0394   27.8548
     H     -3.13200000      2.35020000      3.17990000    0.0383   27.9828
     H     -1.50900000      1.44310000      1.18240000   -0.0138   22.8454
     H     -3.86060000     -1.26200000      2.43610000    0.0368   27.9589
     H     -3.40980000     -0.74980000      4.14510000    0.0131   29.0775
     H     -3.57200000      0.99770000      4.32680000    0.0364   28.3712
