15
chgs=0 nmr=1 alpha=58.41 b3lypd3vdz=-345.596156154594 
     C     -5.95950000     -0.75220000      0.59260000    0.0255  149.7383
     C     -5.44150000     -1.47950000     -0.66470000    0.1283  -10.6677
     O     -6.22450000     -2.15670000     -1.31890000   -0.2012 -390.1581
     C     -6.72760000      0.54920000      0.23110000   -0.0586  172.6471
     C     -7.17340000      0.66390000     -1.24020000   -0.0068  145.5496
     C     -7.71910000      2.04180000     -1.51110000    0.1562    0.5003
     O     -8.86560000      2.36260000     -1.68260000   -0.1804 -323.5974
     H     -6.64650000     -1.48990000      1.03030000    0.0422   29.2979
     H     -7.60780000      0.64120000      0.88650000    0.0361   30.0385
     H     -6.07680000      1.40620000      0.44970000    0.0182   29.5963
     H     -6.30940000      0.50900000     -1.90500000    0.0301   29.8890
     H     -7.93760000     -0.07880000     -1.49670000    0.0352   29.5778
     H     -5.18710000     -0.50780000      1.33670000    0.0148   28.6469
     H     -4.39340000     -1.31500000     -0.95530000   -0.0064   20.9152
     H     -6.91510000      2.79240000     -1.52410000   -0.0331   21.9227
