17
chgs=0 nmr=1 alpha=59.88 b3lypd3vdz=-343.01008727972 
     C     -5.95950000     -0.75220000      0.59260000    0.0633  132.8761
     C     -5.44150000     -1.47950000     -0.66470000    0.0641   23.8219
     O     -6.22450000     -2.15670000     -1.31890000   -0.2714  -65.5205
     C     -6.72760000      0.54920000      0.23110000   -0.0123  159.3151
     C     -7.17340000      0.66390000     -1.24020000   -0.0038  177.2959
     N     -4.14050000     -1.27530000     -1.02540000   -0.0626  172.0451
     N     -4.93360000     -0.42760000      1.58080000   -0.1887  234.2146
     H     -6.64650000     -1.48990000      1.03030000    0.0151   28.0266
     H     -7.60780000      0.64120000      0.88650000    0.0208   29.1193
     H     -6.07680000      1.40620000      0.44970000   -0.0025   30.9399
     H     -6.30940000      0.50900000     -1.90500000    0.0262   30.5432
     H     -7.93760000     -0.07880000     -1.49670000    0.0359   30.1427
     H     -3.49920000     -0.77170000     -0.41380000    0.0705   25.8536
     H     -4.60560000      0.53540000      1.61300000    0.0777   31.1745
     H     -7.57180000      1.66990000     -1.43800000    0.0049   30.6111
     H     -3.73200000     -1.78860000     -1.78020000    0.0883   27.9036
     H     -4.37810000     -1.13950000      2.01050000    0.0745   31.3167
