13
chgs=0 nmr=1 alpha=36.94 b3lypd3vdz=-211.450187137607 
     C     -2.83870000     -1.09330000     -3.13790000    0.0986  142.3052
     O     -1.71160000     -0.46870000     -2.50910000   -0.2924  331.6608
     N      0.29000000     -2.47520000     -0.72790000   -0.2556  266.5284
     C      1.51630000     -2.25140000     -1.46470000    0.0482  162.7769
     H     -2.49380000     -1.73900000     -3.96220000    0.0133   27.8170
     H     -0.90150000     -0.86780000     -2.89010000    0.1552   31.3440
     H     -3.34220000     -1.75290000     -2.41580000    0.0224   27.7549
     H     -3.51190000     -0.31800000     -3.53260000    0.0317   27.7593
     H     -0.46940000     -1.80640000     -0.84560000    0.0696   31.2567
     H      2.30700000     -2.84320000     -0.97730000    0.0179   28.8302
     H      0.13210000     -3.33170000     -0.23650000    0.0730   31.9697
     H      1.82450000     -1.19670000     -1.41380000    0.0226   28.8093
     H      1.41200000     -2.60180000     -2.50220000   -0.0044   28.4300
