13
chgs=0 nmr=1 alpha=47.97 b3lypd3vdz=-232.286096607654 
     C      2.12680000     -2.09980000      2.16000000   -0.0584   58.0596
     C      1.01760000     -2.42980000      2.95410000   -0.0641   56.8448
     C      1.51630000     -2.25140000     -1.46470000   -0.0417  157.6460
     C      1.94450000     -0.78610000     -1.39400000    0.1247   -8.7168
     O      1.25770000      0.07870000     -0.82990000   -0.2123 -396.4886
     H      2.57640000     -2.86320000      1.52270000    0.0251   25.3767
     H      2.53330000     -1.07790000      2.18220000    0.0374   25.1865
     H      0.57880000     -1.66260000      3.60900000    0.0335   25.1772
     H      0.56610000     -3.43290000      2.95190000    0.0289   25.0936
     H      2.30700000     -2.84320000     -0.97730000    0.0418   29.5361
     H      0.58470000     -2.42140000     -0.90500000    0.0471   29.3456
     H      1.41200000     -2.60180000     -2.50220000    0.0450   29.3237
     H      2.90130000     -0.55550000     -1.88520000   -0.0069   21.2713
