17
chgs=0 nmr=1 alpha=75.02 b3lypd3vdz=-309.605401166764 
     C      6.02880000     -1.42020000     -0.11300000   -0.0814   57.6208
     C      6.04520000     -0.70090000      1.09900000   -0.0386   59.9013
     C      2.08100000      0.19180000      3.00120000   -0.0299   85.5503
     C      2.64120000     -0.80650000      2.18810000   -0.0167   53.1074
     C      2.12680000     -2.09980000      2.16000000   -0.0572   83.5740
     C      1.01760000     -2.42980000      2.95410000    0.1185   38.4771
     O      0.45780000     -3.67340000      2.95140000   -0.1748  199.2490
     H      5.87840000      0.37770000      1.10230000    0.0423   25.1500
     H      5.88110000     -1.12740000     -1.16300000    0.0317   24.9532
     H      6.20500000     -2.50590000     -0.09900000    0.0251   25.5308
     H      6.21940000     -1.25390000      2.03380000    0.0428   24.8663
     H      3.50920000     -0.57500000      1.56880000   -0.0248   25.0318
     H      2.57640000     -2.86320000      1.52270000   -0.0381   26.4023
     H      0.82970000     -4.18290000      2.20160000    0.1610   27.5782
     H      2.49250000      1.21150000      2.97110000    0.0083   26.5303
     H      1.22090000     -0.08240000      3.62970000    0.0058   24.5789
     H      0.57880000     -1.66260000      3.60900000    0.0259   22.2562
