6
chgs=0 nmr=1 alpha=22.23 b3lypd3vdz=-78.533253065099 
     C      2.64120000     -0.80650000      2.18810000   -0.0556   59.6574
     C      2.12680000     -2.09980000      2.16000000   -0.0564   59.5494
     H      3.50920000     -0.57500000      1.56880000    0.0265   25.3164
     H      2.57640000     -2.86320000      1.52270000    0.0273   25.2294
     H      2.20230000     -0.02440000      2.82510000    0.0296   25.1218
     H      1.25750000     -2.35840000      2.78240000    0.0286   25.2226
