16
chgs=0 nmr=1 alpha=56.65 b3lypd3vdz=-362.872606893124 
     C     -5.95950000     -0.75220000      0.59260000    0.1150  148.4982
     C     -6.72760000      0.54920000      0.23110000   -0.0495  156.5489
     C     -7.17340000      0.66390000     -1.24020000    0.0512  156.8718
     C     -7.71910000      2.04180000     -1.51110000    0.1219   24.7292
     O     -6.70720000      2.98650000     -1.52750000   -0.1968  131.5314
     O     -8.86560000      2.36260000     -1.68260000   -0.2246  -84.5063
     N     -4.93360000     -0.42760000      1.58080000   -0.2221  244.5994
     H     -6.64650000     -1.48990000      1.03030000    0.0065   28.3455
     H     -7.60780000      0.64120000      0.88650000    0.0271   29.1410
     H     -6.07680000      1.40620000      0.44970000    0.0181   30.4635
     H     -6.30940000      0.50900000     -1.90500000    0.0356   29.2281
     H     -7.93760000     -0.07880000     -1.49670000    0.0288   29.6955
     H     -7.13700000      3.84940000     -1.67810000    0.1509   26.6271
     H     -4.60560000      0.53540000      1.61300000    0.0762   31.9264
     H     -5.59000000     -1.27100000     -0.30420000   -0.0102   28.8608
     H     -4.37810000     -1.13950000      2.01050000    0.0720   31.8600
