16
chgs=0 nmr=1 alpha=75.38 b3lypd3vdz=-234.412525668107 
     C      2.08100000      0.19180000      3.00120000   -0.0632   59.6567
     C      2.64120000     -0.80650000      2.18810000   -0.0640   51.4675
     C      6.02880000     -1.42020000     -0.11300000   -0.0311   35.1349
     C      6.04520000     -0.70090000      1.09900000   -0.0199   53.0017
     C      6.26560000     -1.40060000      2.28170000    0.0203   61.5018
     C      5.83470000     -1.03550000     -1.49250000   -0.0225   61.9261
     H      3.50920000     -0.57500000      1.56880000    0.0412   25.0185
     H      2.49250000      1.21150000      2.97110000    0.0248   25.0358
     H      1.22090000     -0.08240000      3.62970000    0.0269   25.1540
     H      2.23470000     -1.82840000      2.16590000    0.0237   25.0643
     H      5.87840000      0.37770000      1.10230000   -0.0142   24.3393
     H      6.27140000     -0.86200000      3.23210000    0.0231   25.9258
     H      6.20500000     -2.50590000     -0.09900000   -0.0173   24.2354
     H      6.42710000     -2.48870000      2.28190000    0.0242   25.4608
     H      5.54490000     -0.04080000     -1.86200000    0.0210   25.0261
     H      5.93480000     -1.95560000     -2.08700000    0.0269   25.5125
