13
chgs=0 nmr=1 alpha=42.14 b3lypd3vdz=-269.456999826782 
     C     -6.72760000      0.54920000      0.23110000   -0.0724  182.5211
     C     -7.17340000      0.66390000     -1.24020000   -0.0743  182.0079
     C     -3.36750000      2.38270000     -0.31390000    0.2344   34.7390
     O     -4.04740000      2.27800000      0.70320000   -0.2469 -115.3614
     O     -3.88670000      2.72240000     -1.49350000   -0.1609  127.5937
     H     -7.60780000      0.64120000      0.88650000    0.0147   30.6088
     H     -6.07680000      1.40620000      0.44970000    0.0247   29.2198
     H     -6.30940000      0.50900000     -1.90500000    0.0125   30.6145
     H     -7.93760000     -0.07880000     -1.49670000    0.0222   30.4456
     H     -6.18380000     -0.37210000      0.48700000    0.0194   30.7777
     H     -7.57180000      1.66990000     -1.43800000    0.0121   30.6475
     H     -4.86380000      2.83350000     -1.40270000    0.1762   25.1340
     H     -2.28390000      2.19630000     -0.34580000    0.0383   23.5545
