21
chgs=0 nmr=1 alpha=81.81 b3lypd3vdz=-274.925367157022 
     C     -3.06370000     -0.92600000      3.11590000   -0.0240  164.2221
     C     -3.54840000     -0.67920000      4.55730000   -0.0673  173.5228
     C     -3.88230000      0.82070000      4.57630000   -0.0202  162.7255
     C      2.08100000      0.19180000      3.00120000   -0.0017   71.0906
     C      0.98480000     -0.15760000      3.80220000   -0.0252   55.6217
     C      0.45840000     -1.45210000      3.78880000   -0.0249   52.4211
     C      1.01760000     -2.42980000      2.95410000   -0.0003   69.5745
     H     -2.29450000     -1.70630000      3.05990000    0.0092   29.7435
     H     -4.39500000     -1.32650000      4.82530000    0.0077   30.2406
     H     -2.72210000     -0.89730000      5.25360000    0.0091   30.2319
     H     -4.86980000      0.99170000      4.11760000    0.0212   29.7486
     H     -3.89940000      1.24920000      5.58850000    0.0081   29.8789
     H     -2.64250000      0.04720000      2.82370000    0.0143   30.4946
     H     -3.86060000     -1.26200000      2.43610000    0.0172   29.8208
     H     -3.09900000      1.26760000      3.94650000    0.0183   30.3959
     H      0.53070000      0.59650000      4.45220000   -0.0195   25.0142
     H     -0.38490000     -1.72720000      4.42550000   -0.0092   24.7121
     H      2.49250000      1.21150000      2.97110000    0.0227   25.8060
     H      2.51990000     -0.59030000      2.36420000    0.0212   23.8113
     H      1.88690000     -2.17120000      2.33170000    0.0237   23.5591
     H      0.56610000     -3.43290000      2.95190000    0.0197   25.8359
