11
chgs=0 nmr=1 alpha=37.43 b3lypd3vdz=-264.425653983546 
     N     -2.50100000      0.37410000      2.72560000   -0.2142  250.7048
     C     -3.06370000     -0.92600000      3.11590000    0.0928  142.7048
     C     -4.17810000     -1.39590000      2.16520000    0.0478   25.0453
     O     -4.36040000     -2.59610000      1.96420000   -0.2734  -80.9857
     N     -4.93360000     -0.42760000      1.58080000   -0.0587  172.0157
     H     -2.29450000     -1.70630000      3.05990000    0.0322   28.1211
     H     -4.60560000      0.53540000      1.61300000    0.0691   25.6811
     H     -2.06490000      0.44940000      1.82890000    0.0860   31.1179
     H     -2.69620000      1.10040000      3.38470000    0.0862   30.2121
     H     -3.40980000     -0.74980000      4.14510000    0.0418   28.2513
     H     -5.63580000     -0.64980000      0.90440000    0.0905   27.9067
