12
chgs=0 nmr=1 alpha=42.37 b3lypd3vdz=-248.398714253501 
     C     -3.06370000     -0.92600000      3.11590000   -0.0102  157.1577
     C     -4.17810000     -1.39590000      2.16520000    0.0648   25.8368
     O     -4.36040000     -2.59610000      1.96420000   -0.2701  -74.5714
     C     -3.54840000     -0.67920000      4.55730000   -0.0151  177.7449
     N     -4.93360000     -0.42760000      1.58080000   -0.0627  170.1779
     H     -2.29450000     -1.70630000      3.05990000    0.0309   29.4277
     H     -4.39500000     -1.32650000      4.82530000    0.0355   30.1113
     H     -2.72210000     -0.89730000      5.25360000    0.0283   29.9658
     H     -4.60560000      0.53540000      1.61300000    0.0904   27.4204
     H     -2.64250000      0.04720000      2.82370000   -0.0026   29.3390
     H     -3.78740000      0.39440000      4.57090000    0.0193   29.9030
     H     -5.63580000     -0.64980000      0.90440000    0.0917   27.9229
