17
chgs=0 nmr=1 alpha=73.32 b3lypd3vdz=-309.622646197488 
     C      6.02880000     -1.42020000     -0.11300000   -0.0453   49.0290
     C      6.25690000     -2.82580000     -0.09490000   -0.0422   47.6955
     C      6.04520000     -0.70090000      1.09900000    0.0053   70.0935
     C      6.47650000     -3.53090000      1.09720000    0.0069   79.6179
     C      5.13490000      4.75780000      0.58520000   -0.0414  163.1950
     C      4.42820000      3.44170000      0.90960000    0.1269  -12.3874
     O      4.96590000      2.35460000      0.66000000   -0.2005 -394.9846
     H      5.87840000      0.37770000      1.10230000    0.0379   24.5029
     H      6.64460000     -4.61050000      1.09690000    0.0166   26.2441
     H      5.88110000     -1.12740000     -1.16300000   -0.0293   24.4197
     H      6.21640000     -3.17810000     -1.13620000   -0.0306   24.6925
     H      6.21940000     -1.25390000      2.03380000    0.0192   23.4832
     H      6.47380000     -2.95250000      2.03290000    0.0222   23.9492
     H      5.99190000      4.83530000      1.27870000    0.0636   29.4810
     H      4.47090000      5.61460000      0.77610000    0.0253   29.2585
     H      5.50070000      4.80480000     -0.45110000    0.0619   29.3331
     H      3.42440000      3.49910000      1.35580000    0.0034   20.9827
