12
chgs=0 nmr=1 alpha=38.72 b3lypd3vdz=-194.214568819366 
     C     -3.36750000      2.38270000     -0.31390000    0.1809   -1.2253
     O     -4.04740000      2.27800000      0.70320000   -0.1907 -444.6248
     C     -3.88230000      0.82070000      4.57630000   -0.0615  181.8664
     C     -2.78870000      1.44460000      3.69700000   -0.0593  180.6041
     H     -2.28390000      2.19630000     -0.34580000    0.0142   21.4912
     H     -3.79600000      2.66310000     -1.28740000    0.0135   21.4689
     H     -4.86980000      0.99170000      4.11760000    0.0238   30.0002
     H     -3.89940000      1.24920000      5.58850000    0.0155   30.3691
     H     -1.88090000      1.68360000      4.27730000    0.0089   30.3994
     H     -3.13200000      2.35020000      3.17990000    0.0274   29.8333
     H     -3.64330000     -0.25290000      4.56270000    0.0157   30.0217
     H     -2.57400000      0.64570000      2.97200000    0.0116   30.1114
