21
chgs=0 nmr=1 alpha=62.43 b3lypd3vdz=-291.223114638657 
     C     -1.35040000      1.82310000      1.05140000   -0.0570  182.0000
     C     -1.88600000      2.12790000     -0.35750000   -0.0842  182.7712
     C     -2.83870000     -1.09330000     -3.13790000    0.0967  142.5978
     O     -1.71160000     -0.46870000     -2.50910000   -0.2638  329.2209
     N      0.29000000     -2.47520000     -0.72790000   -0.2562  266.2420
     C      1.51630000     -2.25140000     -1.46470000    0.0470  162.8271
     H     -1.61820000      2.64140000      1.72800000    0.0134   30.5598
     H     -1.37820000      3.00360000     -0.78400000    0.0080   30.7461
     H     -1.69840000      1.28000000     -1.04010000    0.0363   29.2321
     H     -0.25490000      1.72910000      1.08280000    0.0137   30.6255
     H     -1.75410000      0.85570000      1.38500000    0.0175   30.4467
     H     -2.96960000      2.31430000     -0.32560000    0.0097   30.7046
     H     -2.49380000     -1.73900000     -3.96220000    0.0173   27.7712
     H     -0.90150000     -0.86780000     -2.89010000    0.1562   31.1037
     H     -3.34220000     -1.75290000     -2.41580000    0.0257   27.7102
     H     -3.51190000     -0.31800000     -3.53260000    0.0367   27.7246
     H     -0.46940000     -1.80640000     -0.84560000    0.0708   31.1991
     H      2.30700000     -2.84320000     -0.97730000    0.0190   28.7932
     H      0.13210000     -3.33170000     -0.23650000    0.0737   31.8930
     H      1.82450000     -1.19670000     -1.41380000    0.0237   28.7542
     H      1.41200000     -2.60180000     -2.50220000   -0.0044   28.3912
