16
chgs=0 nmr=1 alpha=57.52 b3lypd3vdz=-362.809038700848 
     C     -3.36750000      2.38270000     -0.31390000    0.1928   -4.7183
     O     -4.04740000      2.27800000      0.70320000   -0.1891 -413.6687
     C     -5.95950000     -0.75220000      0.59260000   -0.0183  130.5290
     C     -5.44150000     -1.47950000     -0.66470000    0.1767  -21.9738
     O     -6.22450000     -2.15670000     -1.31890000   -0.2133 -350.7172
     C     -6.72760000      0.54920000      0.23110000   -0.0035  171.0908
     N     -4.93360000     -0.42760000      1.58080000   -0.2063  237.0693
     H     -2.28390000      2.19630000     -0.34580000    0.0310   21.3341
     H     -3.79600000      2.66310000     -1.28740000    0.0277   21.4291
     H     -6.64650000     -1.48990000      1.03030000    0.0143   28.2862
     H     -7.60780000      0.64120000      0.88650000    0.0334   29.5695
     H     -6.07680000      1.40620000      0.44970000    0.0270   30.0012
     H     -4.60560000      0.53540000      1.61300000    0.0831   30.7754
     H     -4.39340000     -1.31500000     -0.95530000   -0.0442   21.2609
     H     -7.04570000      0.63100000     -0.81870000    0.0189   30.5713
     H     -4.37810000     -1.13950000      2.01050000    0.0696   30.9562
