16
chgs=0 nmr=1 alpha=61.95 b3lypd3vdz=-271.549874865309 
     C      4.42820000      3.44170000      0.90960000    0.1831   -5.9891
     O      4.96590000      2.35460000      0.66000000   -0.1928 -465.3747
     C      6.02880000     -1.42020000     -0.11300000   -0.0409   54.8954
     C      3.96600000      0.65520000     -1.66450000   -0.0216  169.0725
     C      5.43980000      0.31980000     -1.99600000    0.0291  165.7112
     C      5.83470000     -1.03550000     -1.49250000   -0.0945   28.4077
     H      4.93670000      4.38870000      0.67620000    0.0246   21.2672
     H      3.42440000      3.49910000      1.35580000    0.0236   21.2562
     H      3.89510000      0.83610000     -0.58100000    0.0357   29.7053
     H      5.58910000      0.39330000     -3.08410000    0.0031   29.6845
     H      6.04570000      1.11050000     -1.53420000    0.0208   28.6286
     H      6.20500000     -2.50590000     -0.09900000    0.0106   25.5490
     H      6.04160000     -0.85880000      0.83290000    0.0206   24.5070
     H      3.33350000     -0.20980000     -1.91290000    0.0115   30.5243
     H      3.68100000      1.60630000     -2.13800000   -0.0016   30.8895
     H      5.93480000     -1.95560000     -2.08700000   -0.0113   23.9928
