23
chgs=0 nmr=1 alpha=75.3 b3lypd3vdz=-313.269364555739 
     C     -3.36750000      2.38270000     -0.31390000    0.1836   -1.8002
     O     -4.04740000      2.27800000      0.70320000   -0.1757 -432.1186
     C     -6.72760000      0.54920000      0.23110000   -0.0799  182.7346
     C     -7.17340000      0.66390000     -1.24020000   -0.0618  181.9792
     C     -3.54840000     -0.67920000      4.55730000   -0.0222  162.8698
     C     -3.88230000      0.82070000      4.57630000   -0.0590  173.2782
     C     -2.78870000      1.44460000      3.69700000   -0.0192  162.8471
     H     -2.28390000      2.19630000     -0.34580000    0.0241   21.4205
     H     -3.79600000      2.66310000     -1.28740000    0.0203   21.4171
     H     -7.60780000      0.64120000      0.88650000    0.0130   30.5676
     H     -6.07680000      1.40620000      0.44970000    0.0366   29.4027
     H     -6.30940000      0.50900000     -1.90500000    0.0083   30.6740
     H     -7.93760000     -0.07880000     -1.49670000    0.0176   30.5567
     H     -6.18380000     -0.37210000      0.48700000    0.0146   30.8760
     H     -7.57180000      1.66990000     -1.43800000    0.0176   30.5473
     H     -4.39500000     -1.32650000      4.82530000    0.0061   29.9029
     H     -2.72210000     -0.89730000      5.25360000    0.0148   29.8277
     H     -4.86980000      0.99170000      4.11760000    0.0151   29.9314
     H     -3.89940000      1.24920000      5.58850000    0.0023   30.2413
     H     -1.88090000      1.68360000      4.27730000    0.0095   29.7987
     H     -3.13200000      2.35020000      3.17990000    0.0159   29.2253
     H     -3.20230000     -0.85540000      3.52810000    0.0151   30.3738
     H     -2.57400000      0.64570000      2.97200000    0.0033   30.3743
