12
chgs=0 nmr=1 alpha=45.18 b3lypd3vdz=-248.34700668015 
     C      6.02880000     -1.42020000     -0.11300000   -0.0879   59.9756
     C      6.04520000     -0.70090000      1.09900000   -0.0557   57.7635
     C      4.42820000      3.44170000      0.90960000    0.1783   36.4931
     O      4.96590000      2.35460000      0.66000000   -0.2655  -99.1122
     N      3.18890000      3.51260000      1.46050000   -0.0711  162.3373
     H      5.87840000      0.37770000      1.10230000    0.0524   24.0408
     H      5.88110000     -1.12740000     -1.16300000    0.0203   25.0129
     H      6.20500000     -2.50590000     -0.09900000    0.0100   25.7179
     H      6.21940000     -1.25390000      2.03380000    0.0171   24.9465
     H      2.70330000      4.40390000      1.49810000    0.0971   27.3728
     H      4.93670000      4.38870000      0.67620000    0.0026   23.1885
     H      2.62700000      2.69190000      1.56460000    0.1022   27.4015
