16
chgs=0 nmr=1 alpha=65.36 b3lypd3vdz=-325.735923035923 
     C      6.02880000     -1.42020000     -0.11300000   -0.0433   54.2021
     N      2.23970000      2.31020000     -2.25620000   -0.0693  167.9314
     C      3.96600000      0.65520000     -1.66450000   -0.0283  150.6440
     C      3.56570000      1.99100000     -2.32950000    0.0913   28.7069
     O      4.40780000      2.72380000     -2.83520000   -0.2635  -66.4517
     C      5.43980000      0.31980000     -1.99600000    0.0802  162.2622
     C      5.83470000     -1.03550000     -1.49250000   -0.0972   29.9176
     H      1.62560000      1.68770000     -1.72520000    0.0947   27.2352
     H      3.89510000      0.83610000     -0.58100000    0.0397   29.4521
     H      5.58910000      0.39330000     -3.08410000    0.0236   29.2721
     H      6.04570000      1.11050000     -1.53420000    0.0316   28.6723
     H      6.20500000     -2.50590000     -0.09900000    0.0173   25.5662
     H      6.04160000     -0.85880000      0.83290000    0.0148   24.8819
     H      1.90410000      3.20400000     -2.55380000    0.0928   27.5985
     H      3.33350000     -0.20980000     -1.91290000    0.0219   29.5006
     H      5.93480000     -1.95560000     -2.08700000   -0.0063   24.0787
