17
chgs=0 nmr=1 alpha=71.45 b3lypd3vdz=-309.630515597448 
     C      3.96600000      0.65520000     -1.66450000   -0.0571  157.9531
     C      3.56570000      1.99100000     -2.32950000    0.1238   -3.9919
     O      4.40780000      2.72380000     -2.83520000   -0.2014 -372.6825
     C      2.08100000      0.19180000      3.00120000   -0.0280   53.3610
     C      2.64120000     -0.80650000      2.18810000   -0.0082   69.2802
     C      0.98480000     -0.15760000      3.80220000   -0.0191   56.0503
     C      0.45840000     -1.45210000      3.78880000    0.0030   71.5636
     H      3.89510000      0.83610000     -0.58100000    0.0556   29.6432
     H      3.33350000     -0.20980000     -1.91290000    0.0404   29.1642
     H      5.01370000      0.41680000     -1.90020000    0.0418   29.4660
     H      2.49780000      2.24810000     -2.27050000   -0.0048   21.3496
     H      3.50920000     -0.57500000      1.56880000    0.0184   26.1647
     H      0.53070000      0.59650000      4.45220000   -0.0178   25.0907
     H     -0.38490000     -1.72720000      4.42550000    0.0189   26.0544
     H      2.49250000      1.21150000      2.97110000   -0.0127   24.7040
     H      2.23470000     -1.82840000      2.16590000    0.0256   23.5320
     H      0.89720000     -2.21930000      3.13390000    0.0217   23.8578
