16
chgs=0 nmr=1 alpha=61.69 b3lypd3vdz=-325.731027867943 
     N     -2.50100000      0.37410000      2.72560000   -0.2549  231.3594
     C     -3.06370000     -0.92600000      3.11590000    0.0405  122.5408
     C     -4.17810000     -1.39590000      2.16520000    0.1895  -18.8909
     O     -4.36040000     -2.59610000      1.96420000   -0.2128 -367.6136
     C     -3.54840000     -0.67920000      4.55730000    0.0156  158.8770
     C     -3.88230000      0.82070000      4.57630000   -0.0186  162.3612
     C     -2.78870000      1.44460000      3.69700000    0.1401  144.4680
     H     -2.29450000     -1.70630000      3.05990000   -0.0034   28.1948
     H     -4.39500000     -1.32650000      4.82530000    0.0151   29.5893
     H     -2.72210000     -0.89730000      5.25360000    0.0211   29.3986
     H     -4.86980000      0.99170000      4.11760000    0.0151   29.7011
     H     -3.89940000      1.24920000      5.58850000    0.0074   29.7250
     H     -1.88090000      1.68360000      4.27730000    0.0045   28.0986
     H     -3.13200000      2.35020000      3.17990000    0.0055   28.0326
     H     -2.06490000      0.44940000      1.82890000    0.0634   30.8394
     H     -4.78910000     -0.61280000      1.69260000   -0.0282   21.2559
