17
chgs=0 nmr=1 alpha=65.48 b3lypd3vdz=-251.665879013935 
     N      3.11920000     -0.50300000     -1.99710000   -0.2380  263.5684
     C      3.96600000      0.65520000     -1.66450000    0.0417  162.6148
     C      2.64120000     -0.80650000      2.18810000   -0.0023   73.2626
     C      2.12680000     -2.09980000      2.16000000   -0.0202   55.7443
     C      0.45840000     -1.45210000      3.78880000    0.0050   68.5164
     C      1.01760000     -2.42980000      2.95410000   -0.0337   52.8971
     H      3.66780000     -1.30950000     -2.29190000    0.0744   31.5862
     H      3.89510000      0.83610000     -0.58100000    0.0057   28.4232
     H      2.24940000     -0.71260000     -1.55050000    0.0756   32.0032
     H      3.68100000      1.60630000     -2.13800000    0.0166   28.9199
     H      5.01370000      0.41680000     -1.90020000    0.0214   29.1262
     H      3.50920000     -0.57500000      1.56880000    0.0277   26.0391
     H      2.57640000     -2.86320000      1.52270000   -0.0201   25.0604
     H     -0.38490000     -1.72720000      4.42550000    0.0161   25.9667
     H      2.20230000     -0.02440000      2.82510000    0.0228   23.6847
     H      0.87270000     -0.43320000      3.79930000    0.0232   23.5206
     H      0.56610000     -3.43290000      2.95190000   -0.0161   24.8263
