13
chgs=0 nmr=1 alpha=47.2 b3lypd3vdz=-323.570426372343 
     C     -2.54580000     -3.08320000     -1.64360000    0.1573   38.8014
     O     -1.85310000     -3.71080000     -2.46200000   -0.2936 -102.7898
     N     -2.40610000     -3.22870000     -0.31420000   -0.0678  160.1258
     C     -3.06370000     -0.92600000      3.11590000   -0.0385  159.2079
     C     -4.17810000     -1.39590000      2.16520000    0.1281  -14.1331
     O     -4.36040000     -2.59610000      1.96420000   -0.2155 -378.6432
     H     -3.05840000     -2.77050000      0.31520000    0.0940   27.5667
     H     -3.26280000     -2.32260000     -1.98630000   -0.0166   23.4751
     H     -1.68320000     -3.77990000      0.10240000    0.0921   27.6080
     H     -2.29450000     -1.70630000      3.05990000    0.0461   29.4533
     H     -2.64250000      0.04720000      2.82370000    0.0381   29.0825
     H     -3.40980000     -0.74980000      4.14510000    0.0661   29.0781
     H     -4.78910000     -0.61280000      1.69260000    0.0101   20.9041
