10
chgs=0 nmr=1 alpha=35.29 b3lypd3vdz=-284.27303406686 
     C     -3.36750000      2.38270000     -0.31390000    0.1963   -6.0004
     O     -4.04740000      2.27800000      0.70320000   -0.2101 -412.5653
     C     -4.17810000     -1.39590000      2.16520000    0.1562   38.8476
     O     -4.36040000     -2.59610000      1.96420000   -0.2831 -100.5050
     N     -4.93360000     -0.42760000      1.58080000   -0.0867  157.8531
     H     -2.28390000      2.19630000     -0.34580000    0.0270   21.3847
     H     -3.79600000      2.66310000     -1.28740000    0.0265   21.4051
     H     -4.60560000      0.53540000      1.61300000    0.0991   26.7596
     H     -3.38120000     -1.05990000      2.84500000   -0.0142   23.3743
     H     -5.63580000     -0.64980000      0.90440000    0.0889   27.8306
