16
chgs=0 nmr=1 alpha=65.44 b3lypd3vdz=-325.717633014484 
     C      6.02880000     -1.42020000     -0.11300000   -0.0212   49.0276
     C      1.94450000     -0.78610000     -1.39400000    0.1948   35.0303
     O      1.25770000      0.07870000     -0.82990000   -0.2899 -115.5996
     N      3.11920000     -0.50300000     -1.99710000   -0.1321  138.5875
     C      3.96600000      0.65520000     -1.66450000    0.1150  144.5634
     C      5.43980000      0.31980000     -1.99600000    0.0255  162.5591
     C      5.83470000     -1.03550000     -1.49250000   -0.1298   34.5436
     H      3.66780000     -1.30950000     -2.29190000    0.0797   27.7107
     H      3.89510000      0.83610000     -0.58100000    0.0283   28.1430
     H      5.58910000      0.39330000     -3.08410000    0.0237   29.1982
     H      6.04570000      1.11050000     -1.53420000    0.0322   28.8335
     H      6.20500000     -2.50590000     -0.09900000    0.0257   25.2504
     H      6.04160000     -0.85880000      0.83290000    0.0307   24.4925
     H      1.63630000     -1.84080000     -1.44490000   -0.0183   23.3639
     H      3.68100000      1.60630000     -2.13800000    0.0312   28.1887
     H      5.93480000     -1.95560000     -2.08700000    0.0046   24.1943
