13
chgs=0 nmr=1 alpha=49.42 b3lypd3vdz=-232.280788276102 
     C      6.02880000     -1.42020000     -0.11300000   -0.0861   59.3827
     C      6.04520000     -0.70090000      1.09900000   -0.0538   58.3333
     C      5.13490000      4.75780000      0.58520000   -0.0414  163.0968
     C      4.42820000      3.44170000      0.90960000    0.1269  -12.3715
     O      4.96590000      2.35460000      0.66000000   -0.2007 -395.2485
     H      5.87840000      0.37770000      1.10230000    0.0469   23.7546
     H      5.88110000     -1.12740000     -1.16300000    0.0209   24.9069
     H      6.20500000     -2.50590000     -0.09900000    0.0130   25.6234
     H      6.21940000     -1.25390000      2.03380000    0.0203   24.8785
     H      5.99190000      4.83530000      1.27870000    0.0635   29.4758
     H      4.47090000      5.61460000      0.77610000    0.0252   29.2571
     H      5.50070000      4.80480000     -0.45110000    0.0620   29.3167
     H      3.42440000      3.49910000      1.35580000    0.0032   20.9741
