14
chgs=0 nmr=1 alpha=64.39 b3lypd3vdz=-270.324291899951 
     C      4.42820000      3.44170000      0.90960000    0.1853   -6.6562
     O      4.96590000      2.35460000      0.66000000   -0.1911 -466.7277
     C      5.96040000     -2.19040000     -2.23880000    0.0234   53.3997
     C      6.02880000     -1.42020000     -0.11300000   -0.0245   28.7702
     C      6.04520000     -0.70090000      1.09900000   -0.0125   71.7535
     C      5.83470000     -1.03550000     -1.49250000   -0.0455   51.9608
     H      4.93670000      4.38870000      0.67620000    0.0212   21.2617
     H      3.42440000      3.49910000      1.35580000    0.0230   21.2612
     H      5.91250000     -2.32370000     -3.31810000    0.0022   25.6598
     H      5.87840000      0.37770000      1.10230000    0.0244   24.4220
     H      6.15540000     -3.04570000     -1.57510000    0.0137   24.7581
     H      6.20500000     -2.50590000     -0.09900000   -0.0236   24.1370
     H      6.21940000     -1.25390000      2.03380000    0.0114   25.8551
     H      5.54490000     -0.04080000     -1.86200000   -0.0075   24.1217
