17
chgs=0 nmr=1 alpha=62.0 b3lypd3vdz=-346.780022711338 
     C     -1.91270000      0.47570000      1.51600000    0.1783   -6.0965
     O     -1.83470000     -0.51030000      0.76680000   -0.2109 -496.9553
     C      1.51630000     -2.25140000     -1.46470000   -0.0116  140.2840
     C      1.94450000     -0.78610000     -1.39400000    0.1546  -11.9476
     O      1.25770000      0.07870000     -0.82990000   -0.2142 -383.8020
     C      1.36760000     -2.75080000     -2.94330000   -0.0635  170.0739
     C      1.41510000     -4.27320000     -3.04150000   -0.0077  174.4109
     H     -1.50900000      1.44310000      1.18240000    0.0222   21.0765
     H     -2.39240000      0.39280000      2.50240000    0.0119   21.1080
     H      2.30700000     -2.84320000     -0.97730000    0.0196   29.7045
     H      2.19480000     -2.32230000     -3.53340000    0.0073   29.7882
     H      1.34630000     -4.57280000     -4.09850000    0.0172   30.0590
     H      2.34810000     -4.66960000     -2.61180000    0.0201   30.5396
     H      0.56830000     -4.72120000     -2.50170000    0.0261   30.2381
     H      0.58470000     -2.42140000     -0.90500000    0.0369   28.8333
     H      2.90130000     -0.55550000     -1.88520000   -0.0130   21.3671
     H      0.44400000     -2.35480000     -3.39070000    0.0266   30.0853
