16
chgs=0 nmr=1 alpha=59.25 b3lypd3vdz=-271.569157305124 
     C      0.98480000     -0.15760000      3.80220000   -0.0602   59.3738
     C      0.45840000     -1.45210000      3.78880000   -0.0640   57.8030
     C     -3.06370000     -0.92600000      3.11590000   -0.0480  148.2598
     C     -4.17810000     -1.39590000      2.16520000    0.1539  -11.9685
     O     -4.36040000     -2.59610000      1.96420000   -0.2100 -373.5970
     C     -3.54840000     -0.67920000      4.55730000   -0.0372  180.8927
     H      0.53070000      0.59650000      4.45220000    0.0271   25.2797
     H     -0.38490000     -1.72720000      4.42550000    0.0389   25.1625
     H      1.84490000      0.11660000      3.17370000    0.0333   25.1120
     H      0.89720000     -2.21930000      3.13390000    0.0332   25.1282
     H     -2.29450000     -1.70630000      3.05990000    0.0345   29.4026
     H     -4.39500000     -1.32650000      4.82530000    0.0336   30.5050
     H     -2.72210000     -0.89730000      5.25360000    0.0325   29.9275
     H     -2.64250000      0.04720000      2.82370000    0.0140   28.8839
     H     -4.78910000     -0.61280000      1.69260000   -0.0124   21.0766
     H     -3.78740000      0.39440000      4.57090000    0.0308   29.7546
