14
chgs=0 nmr=1 alpha=46.71 b3lypd3vdz=-249.540083377259 
     C     -1.36200000     -4.02470000      0.28750000    0.0561  163.9570
     N     -2.40610000     -3.22870000     -0.31420000   -0.2405  261.7415
     C     -3.06370000     -0.92600000      3.11590000   -0.0428  159.5335
     C     -4.17810000     -1.39590000      2.16520000    0.1316  -10.9381
     O     -4.36040000     -2.59610000      1.96420000   -0.2099 -379.6381
     H     -1.46800000     -3.96920000      1.37910000    0.0187   29.1605
     H     -1.43760000     -5.08370000     -0.00650000    0.0001   28.6912
     H     -3.05840000     -2.77050000      0.31520000    0.0744   31.6484
     H     -0.32890000     -3.74340000      0.03530000   -0.0042   29.0515
     H     -2.51000000     -3.12050000     -1.30290000    0.0680   32.4297
     H     -2.29450000     -1.70630000      3.05990000    0.0546   29.3565
     H     -2.64250000      0.04720000      2.82370000    0.0329   29.1971
     H     -3.40980000     -0.74980000      4.14510000    0.0583   29.2250
     H     -4.78910000     -0.61280000      1.69260000    0.0027   21.0440
