12
chgs=0 nmr=1 alpha=42.47 b3lypd3vdz=-248.402372640824 
     C      2.37390000      2.32220000      1.61150000   -0.0066  156.0767
     C      0.90310000      2.70560000      1.48210000    0.0658   24.6460
     O      0.49730000      3.84920000      1.74780000   -0.2812  -74.7120
     C      2.64600000      1.59200000      2.95990000   -0.0215  175.5706
     N      0.09590000      1.69900000      1.09290000   -0.0538  171.9383
     H      2.62670000      1.62560000      0.80080000    0.0008   29.6766
     H      3.74190000      1.55800000      3.06080000    0.0248   30.1038
     H      2.25480000      2.20950000      3.78430000    0.0387   29.9696
     H      0.50170000      0.84260000      0.71010000    0.0933   27.2288
     H      2.99190000      3.22490000      1.49700000    0.0285   29.5531
     H      2.23450000      0.57230000      2.99000000    0.0201   30.2822
     H     -0.90000000      1.78450000      1.06430000    0.0911   27.9214
