14
chgs=0 nmr=1 alpha=54.93 b3lypd3vdz=-361.669562839677 
     C      4.42820000      3.44170000      0.90960000    0.2081   36.3493
     O      4.96590000      2.35460000      0.66000000   -0.2937 -103.0326
     N      3.18890000      3.51260000      1.46050000   -0.1141  139.5617
     C      2.37390000      2.32220000      1.61150000   -0.0324  133.2223
     C      0.90310000      2.70560000      1.48210000    0.2031  -15.0134
     O      0.49730000      3.84920000      1.74780000   -0.2207 -331.8562
     C      2.64600000      1.59200000      2.95990000    0.0211  171.5801
     H      2.70330000      4.40390000      1.49810000    0.0895   25.7566
     H      2.62670000      1.62560000      0.80080000    0.0255   26.8680
     H      3.74190000      1.55800000      3.06080000    0.0517   29.5667
     H      2.25480000      2.20950000      3.78430000    0.0270   30.6062
     H      4.93670000      4.38870000      0.67620000   -0.0037   23.1165
     H      0.24430000      1.88400000      1.16440000    0.0091   21.1569
     H      2.23450000      0.57230000      2.99000000    0.0296   30.0026
