18
chgs=0 nmr=1 alpha=70.74 b3lypd3vdz=-235.646251364906 
     C      1.51630000     -2.25140000     -1.46470000   -0.0761  179.6693
     C      1.36760000     -2.75080000     -2.94330000   -0.0628  181.3720
     C      2.08100000      0.19180000      3.00120000    0.0030   70.8730
     C      2.64120000     -0.80650000      2.18810000   -0.0264   53.9372
     C      2.12680000     -2.09980000      2.16000000   -0.0148   54.4588
     C      1.01760000     -2.42980000      2.95410000   -0.0090   70.5403
     H      2.30700000     -2.84320000     -0.97730000    0.0202   30.5409
     H      2.19480000     -2.32230000     -3.53340000    0.0188   30.3967
     H      0.58470000     -2.42140000     -0.90500000    0.0280   30.3885
     H      1.82450000     -1.19670000     -1.41380000    0.0248   30.4775
     H      0.44400000     -2.35480000     -3.39070000    0.0214   30.4589
     H      1.40180000     -3.84800000     -3.01410000    0.0239   30.4302
     H      3.50920000     -0.57500000      1.56880000   -0.0214   25.1003
     H      2.57640000     -2.86320000      1.52270000   -0.0157   24.9860
     H      2.49250000      1.21150000      2.97110000    0.0217   25.8215
     H      1.22090000     -0.08240000      3.62970000    0.0223   23.6898
     H      0.57880000     -1.66260000      3.60900000    0.0217   23.8473
     H      0.56610000     -3.43290000      2.95190000    0.0205   25.9595
