17
chgs=0 nmr=1 alpha=58.55 b3lypd3vdz=-288.869506668727 
     C      3.96600000      0.65520000     -1.66450000   -0.0932  178.4938
     C      5.43980000      0.31980000     -1.99600000   -0.0558  181.1988
     C      4.42820000      3.44170000      0.90960000    0.2030   36.2859
     O      4.96590000      2.35460000      0.66000000   -0.2805  -98.8403
     N      3.18890000      3.51260000      1.46050000   -0.1454  151.2488
     C      2.37390000      2.32220000      1.61150000    0.0498  165.6173
     H      3.89510000      0.83610000     -0.58100000    0.0615   29.0071
     H      5.58910000      0.39330000     -3.08410000    0.0045   30.5964
     H      6.04570000      1.11050000     -1.53420000    0.0271   29.9206
     H      3.33350000     -0.20980000     -1.91290000    0.0038   30.5208
     H      3.68100000      1.60630000     -2.13800000    0.0034   30.9033
     H      5.72960000     -0.67490000     -1.62650000    0.0152   30.5349
     H      2.70330000      4.40390000      1.49810000    0.0866   27.2032
     H      2.62670000      1.62560000      0.80080000    0.0572   27.3802
     H      4.93670000      4.38870000      0.67620000   -0.0046   23.2308
     H      1.31330000      2.59870000      1.51820000    0.0249   29.2182
     H      2.56610000      1.80640000      2.56390000    0.0426   28.7669
