12
chgs=0 nmr=1 alpha=43.27 b3lypd3vdz=-248.398742835106 
     C      2.37390000      2.32220000      1.61150000    0.0031  168.5975
     C      0.90310000      2.70560000      1.48210000    0.0763   29.4400
     O      0.49730000      3.84920000      1.74780000   -0.2941  -72.6876
     N      0.09590000      1.69900000      1.09290000   -0.1501  154.8358
     C     -1.35040000      1.82310000      1.05140000    0.0649  165.4090
     H      2.62670000      1.62560000      0.80080000    0.0132   30.2894
     H      0.50170000      0.84260000      0.71010000    0.0833   27.1708
     H     -1.61820000      2.64140000      1.72800000    0.0541   27.6301
     H      2.99190000      3.22490000      1.49700000    0.0447   29.7445
     H      2.56610000      1.80640000      2.56390000    0.0516   29.4277
     H     -1.75410000      0.85570000      1.38500000    0.0214   29.1838
     H     -1.73350000      2.04110000      0.04360000    0.0316   29.0507
