17
chgs=0 nmr=1 alpha=58.34 b3lypd3vdz=-197.580815130082 
     C      0.98480000     -0.15760000      3.80220000   -0.0607   58.3687
     C      0.45840000     -1.45210000      3.78880000   -0.0647   58.1232
     C     -3.54840000     -0.67920000      4.55730000   -0.0296  162.4227
     C     -3.88230000      0.82070000      4.57630000   -0.0590  172.7097
     C     -2.78870000      1.44460000      3.69700000   -0.0253  163.4619
     H      0.53070000      0.59650000      4.45220000    0.0325   25.1839
     H     -0.38490000     -1.72720000      4.42550000    0.0325   25.1487
     H      1.84490000      0.11660000      3.17370000    0.0301   25.0636
     H      0.89720000     -2.21930000      3.13390000    0.0288   25.1693
     H     -4.39500000     -1.32650000      4.82530000    0.0083   29.8321
     H     -2.72210000     -0.89730000      5.25360000    0.0257   29.7321
     H     -4.86980000      0.99170000      4.11760000    0.0082   30.1704
     H     -3.89940000      1.24920000      5.58850000    0.0056   30.1669
     H     -1.88090000      1.68360000      4.27730000    0.0239   29.7048
     H     -3.13200000      2.35020000      3.17990000    0.0083   29.7984
     H     -3.20230000     -0.85540000      3.52810000    0.0195   30.2841
     H     -2.57400000      0.64570000      2.97200000    0.0160   30.2514
