15
chgs=0 nmr=1 alpha=54.74 b3lypd3vdz=-287.688195304895 
     C     -3.54700000     -2.02120000     -2.12210000   -0.0194  158.8728
     C     -2.54580000     -3.08320000     -1.64360000    0.1135   24.6973
     O     -1.85310000     -3.71080000     -2.46200000   -0.2980  -61.4303
     C     -2.83870000     -1.09330000     -3.13790000   -0.0151  176.3750
     N     -2.40610000     -3.22870000     -0.31420000   -0.1339  159.0702
     C     -1.36200000     -4.02470000      0.28750000    0.0699  165.7314
     H     -4.37040000     -2.54620000     -2.62940000    0.0360   29.5590
     H     -2.49380000     -1.73900000     -3.96220000    0.0462   29.3985
     H     -3.05840000     -2.77050000      0.31520000    0.0854   27.0930
     H     -1.46800000     -3.96920000      1.37910000    0.0135   29.3862
     H     -1.43760000     -5.08370000     -0.00650000    0.0376   28.4246
     H     -3.99630000     -1.45650000     -1.29190000   -0.0085   30.0301
     H     -1.97400000     -0.61410000     -2.65550000    0.0218   30.6036
     H     -3.51190000     -0.31800000     -3.53260000    0.0111   30.5034
     H     -0.32890000     -3.74340000      0.03530000    0.0397   28.7022
