15
chgs=0 nmr=1 alpha=53.87 b3lypd3vdz=-287.598378559107 
     C      2.64120000     -0.80650000      2.18810000   -0.0457   59.6597
     C      2.12680000     -2.09980000      2.16000000   -0.0515   61.3271
     N      0.29000000     -2.47520000     -0.72790000   -0.2063  256.9714
     C      1.51630000     -2.25140000     -1.46470000    0.0521  136.5616
     C      1.94450000     -0.78610000     -1.39400000    0.1634  -10.0994
     O      1.25770000      0.07870000     -0.82990000   -0.2112 -366.1582
     H      3.50920000     -0.57500000      1.56880000    0.0191   25.7730
     H      2.57640000     -2.86320000      1.52270000    0.0156   25.6163
     H      2.20230000     -0.02440000      2.82510000    0.0305   25.3225
     H      1.25750000     -2.35840000      2.78240000    0.0240   25.4250
     H     -0.46940000     -1.80640000     -0.84560000    0.0885   30.7056
     H      2.30700000     -2.84320000     -0.97730000    0.0320   27.9464
     H      0.13210000     -3.33170000     -0.23650000    0.0770   31.6116
     H      1.41200000     -2.60180000     -2.50220000    0.0264   27.2893
     H      2.90130000     -0.55550000     -1.88520000   -0.0140   21.4241
