15
chgs=0 nmr=1 alpha=54.53 b3lypd3vdz=-287.687158310221 
     C      2.37390000      2.32220000      1.61150000   -0.0027  155.5877
     C      0.90310000      2.70560000      1.48210000    0.1063   24.3690
     O      0.49730000      3.84920000      1.74780000   -0.2966  -57.6959
     C      2.64600000      1.59200000      2.95990000   -0.0210  175.7126
     N      0.09590000      1.69900000      1.09290000   -0.1475  157.5110
     C     -1.35040000      1.82310000      1.05140000    0.0651  165.5041
     H      2.62670000      1.62560000      0.80080000   -0.0003   29.8454
     H      3.74190000      1.55800000      3.06080000    0.0235   30.1572
     H      2.25480000      2.20950000      3.78430000    0.0375   30.0575
     H      0.50170000      0.84260000      0.71010000    0.0844   27.2208
     H     -1.61820000      2.64140000      1.72800000    0.0537   27.6430
     H      2.99190000      3.22490000      1.49700000    0.0265   29.5192
     H      2.23450000      0.57230000      2.99000000    0.0189   30.3782
     H     -1.75410000      0.85570000      1.38500000    0.0207   29.1749
     H     -1.73350000      2.04110000      0.04360000    0.0313   29.0622
