13
chgs=0 nmr=1 alpha=49.99 b3lypd3vdz=-377.743335047082 
     N      2.23970000      2.31020000     -2.25620000   -0.0725  158.6777
     C      1.94450000     -0.78610000     -1.39400000    0.2134   32.6306
     O      1.25770000      0.07870000     -0.82990000   -0.2984  -76.4973
     N      3.11920000     -0.50300000     -1.99710000   -0.1169  142.0816
     C      3.96600000      0.65520000     -1.66450000    0.0800  141.0414
     C      3.56570000      1.99100000     -2.32950000    0.0727   30.3654
     O      4.40780000      2.72380000     -2.83520000   -0.2644  -74.2000
     H      1.62560000      1.68770000     -1.72520000    0.0968   23.6781
     H      3.66780000     -1.30950000     -2.29190000    0.0972   27.0049
     H      3.89510000      0.83610000     -0.58100000    0.0530   27.4411
     H      1.90410000      3.20400000     -2.55380000    0.0908   27.6165
     H      1.63630000     -1.84080000     -1.44490000    0.0102   23.2497
     H      5.01370000      0.41680000     -1.90020000    0.0381   28.5494
