15
chgs=0 nmr=1 alpha=50.34 b3lypd3vdz=-324.77388811717 
     C      0.07660000     -3.63300000     -0.06370000    0.1605   36.9823
     O      0.98870000     -4.40750000      0.25670000   -0.2832 -124.3023
     N      0.29000000     -2.47520000     -0.72790000   -0.0890  168.3891
     C     -2.83870000     -1.09330000     -3.13790000    0.0894  132.7352
     O     -1.71160000     -0.46870000     -2.50910000   -0.2806  302.7025
     C     -3.77040000     -0.02030000     -3.68410000   -0.0213  172.3808
     H     -0.46940000     -1.80640000     -0.84560000    0.0926   26.9948
     H     -0.95650000     -3.91430000      0.18850000   -0.0078   23.0644
     H      1.13690000     -2.32060000     -1.23670000    0.0953   27.7617
     H     -2.49380000     -1.73900000     -3.96220000    0.0096   27.7071
     H     -0.90150000     -0.86780000     -2.89010000    0.1468   31.0433
     H     -3.25600000      0.55400000     -4.46900000    0.0226   30.0702
     H     -4.68470000     -0.46680000     -4.10730000    0.0175   30.3865
     H     -4.05240000      0.68150000     -2.88650000    0.0328   30.0067
     H     -3.34220000     -1.75290000     -2.41580000    0.0149   27.6098
