18
chgs=0 nmr=1 alpha=63.53 b3lypd3vdz=-272.774906539816 
     C     -3.06370000     -0.92600000      3.11590000   -0.0239  163.9454
     C     -3.54840000     -0.67920000      4.55730000   -0.0653  173.6143
     C     -3.88230000      0.82070000      4.57630000   -0.0192  162.5825
     C      0.45840000     -1.45210000      3.78880000   -0.0708   90.4265
     C      1.01760000     -2.42980000      2.95410000    0.0347   36.2582
     O      0.45780000     -3.67340000      2.95140000   -0.1767  216.0196
     H     -2.29450000     -1.70630000      3.05990000    0.0222   29.4505
     H     -4.39500000     -1.32650000      4.82530000    0.0051   30.2373
     H     -2.72210000     -0.89730000      5.25360000    0.0116   30.1036
     H     -4.86980000      0.99170000      4.11760000    0.0184   29.7659
     H     -3.89940000      1.24920000      5.58850000    0.0066   29.8792
     H     -2.64250000      0.04720000      2.82370000    0.0084   30.5056
     H     -3.86060000     -1.26200000      2.43610000    0.0119   29.8140
     H     -3.09900000      1.26760000      3.94650000    0.0172   30.3749
     H     -0.38490000     -1.72720000      4.42550000    0.0318   26.1764
     H      0.82970000     -4.18290000      2.20160000    0.1587   28.3659
     H      0.87270000     -0.43320000      3.79930000    0.0187   26.6610
     H      1.88690000     -2.17120000      2.33170000    0.0105   24.0307
