18
chgs=0 nmr=1 alpha=65.53 b3lypd3vdz=-326.933550408345 
     C      0.98480000     -0.15760000      3.80220000   -0.0620   59.8435
     C      0.45840000     -1.45210000      3.78880000   -0.0625   57.3822
     C     -3.06370000     -0.92600000      3.11590000   -0.0183  154.6439
     C     -4.17810000     -1.39590000      2.16520000    0.0671   25.5599
     O     -4.36040000     -2.59610000      1.96420000   -0.2707  -73.6965
     C     -3.54840000     -0.67920000      4.55730000   -0.0200  177.8796
     N     -4.93360000     -0.42760000      1.58080000   -0.0626  169.9884
     H      0.53070000      0.59650000      4.45220000    0.0263   25.3201
     H     -0.38490000     -1.72720000      4.42550000    0.0411   25.1523
     H      1.84490000      0.11660000      3.17370000    0.0319   25.1416
     H      0.89720000     -2.21930000      3.13390000    0.0333   25.1010
     H     -2.29450000     -1.70630000      3.05990000    0.0350   29.4230
     H     -4.39500000     -1.32650000      4.82530000    0.0354   30.1141
     H     -2.72210000     -0.89730000      5.25360000    0.0257   29.9338
     H     -4.60560000      0.53540000      1.61300000    0.0902   27.4424
     H     -2.64250000      0.04720000      2.82370000   -0.0007   29.4274
     H     -3.78740000      0.39440000      4.57090000    0.0198   29.8761
     H     -5.63580000     -0.64980000      0.90440000    0.0909   27.9470
