6
chgs=0 nmr=1 alpha=22.41 b3lypd3vdz=-78.531795002988 
     C      2.12680000     -2.09980000      2.16000000   -0.0544   58.1476
     C      1.01760000     -2.42980000      2.95410000   -0.0654   56.8430
     H      2.57640000     -2.86320000      1.52270000    0.0286   25.1808
     H      2.53330000     -1.07790000      2.18220000    0.0310   25.0086
     H      0.57880000     -1.66260000      3.60900000    0.0294   25.1618
     H      0.56610000     -3.43290000      2.95190000    0.0308   25.0340
