15
chgs=0 nmr=1 alpha=54.11 b3lypd3vdz=-378.924392766976 
     C     -1.36200000     -4.02470000      0.28750000    0.0646  167.3983
     C     -2.54580000     -3.08320000     -1.64360000    0.1826   37.6312
     O     -1.85310000     -3.71080000     -2.46200000   -0.3029 -103.7455
     N     -2.40610000     -3.22870000     -0.31420000   -0.1339  150.3911
     C     -4.17810000     -1.39590000      2.16520000    0.1751   35.9914
     O     -4.36040000     -2.59610000      1.96420000   -0.2833  -85.7547
     N     -4.93360000     -0.42760000      1.58080000   -0.0653  159.5898
     H     -1.46800000     -3.96920000      1.37910000    0.0191   29.2960
     H     -1.43760000     -5.08370000     -0.00650000    0.0366   28.5067
     H     -3.05840000     -2.77050000      0.31520000    0.0880   26.6346
     H     -0.32890000     -3.74340000      0.03530000    0.0315   28.9119
     H     -3.26280000     -2.32260000     -1.98630000   -0.0321   23.3370
     H     -4.60560000      0.53540000      1.61300000    0.1063   27.1263
     H     -3.38120000     -1.05990000      2.84500000    0.0094   23.1152
     H     -5.63580000     -0.64980000      0.90440000    0.1043   27.2147
