14
chgs=0 nmr=1 alpha=53.52 b3lypd3vdz=-361.632394047727 
     N      0.09590000      1.69900000      1.09290000   -0.1877  254.0381
     C     -1.35040000      1.82310000      1.05140000    0.0102  137.6164
     C     -1.91270000      0.47570000      1.51600000    0.2227  -11.7436
     O     -1.83470000     -0.51030000      0.76680000   -0.2362 -309.7775
     C     -1.88600000      2.12790000     -0.35750000    0.0121  132.2393
     C     -3.36750000      2.38270000     -0.31390000    0.1745   -8.8487
     O     -4.04740000      2.27800000      0.70320000   -0.2136 -339.4253
     H      0.50170000      0.84260000      0.71010000    0.0893   31.3862
     H     -1.61820000      2.64140000      1.72800000   -0.0022   27.8571
     H     -1.37820000      3.00360000     -0.78400000    0.0210   29.0767
     H     -1.69840000      1.28000000     -1.04010000    0.0458   27.9138
     H      0.69480000      2.44590000      1.38170000    0.0812   31.4734
     H     -2.39240000      0.39280000      2.50240000   -0.0039   21.0477
     H     -3.79600000      2.66310000     -1.28740000   -0.0131   21.5411
