14
chgs=0 nmr=1 alpha=42.28 b3lypd3vdz=-195.428788208811 
     C     -3.54700000     -2.02120000     -2.12210000   -0.0694  180.4271
     C     -2.83870000     -1.09330000     -3.13790000   -0.0618  179.0593
     O      0.17140000     -2.23790000     -3.52280000   -0.2937  314.5543
     C      1.36760000     -2.75080000     -2.94330000    0.0968  140.9736
     H     -4.37040000     -2.54620000     -2.62940000    0.0180   30.5037
     H     -2.49380000     -1.73900000     -3.96220000    0.0218   30.5888
     H     -3.99630000     -1.45650000     -1.29190000    0.0236   30.3947
     H     -2.83000000     -2.78180000     -1.77940000    0.0075   30.6744
     H     -1.97400000     -0.61410000     -2.65550000    0.0300   30.1856
     H     -3.51190000     -0.31800000     -3.53260000    0.0172   30.4462
     H     -0.55590000     -2.85860000     -3.27480000    0.1545   31.8107
     H      2.19480000     -2.32230000     -3.53340000    0.0301   27.8142
     H      1.47190000     -2.40040000     -1.90580000    0.0136   27.6643
     H      1.40180000     -3.84800000     -3.01410000    0.0120   27.8069
