13
chgs=0 nmr=1 alpha=46.31 b3lypd3vdz=-323.566880459663 
     C     -4.17810000     -1.39590000      2.16520000    0.1878   -8.2797
     O     -4.36040000     -2.59610000      1.96420000   -0.2097 -453.6298
     C     -3.54700000     -2.02120000     -2.12210000   -0.0010  169.2309
     C     -2.54580000     -3.08320000     -1.64360000    0.0301   30.2683
     O     -1.85310000     -3.71080000     -2.46200000   -0.2901  -74.3862
     N     -2.40610000     -3.22870000     -0.31420000   -0.0517  158.6686
     H     -3.38120000     -1.05990000      2.84500000    0.0279   21.1499
     H     -4.78910000     -0.61280000      1.69260000    0.0308   21.0433
     H     -4.37040000     -2.54620000     -2.62940000    0.0536   29.6026
     H     -3.05840000     -2.77050000      0.31520000    0.0816   27.6633
     H     -3.99630000     -1.45650000     -1.29190000   -0.0046   30.4763
     H     -3.04350000     -1.36160000     -2.84420000    0.0553   29.6029
     H     -1.68320000     -3.77990000      0.10240000    0.0901   27.8585
