6
chgs=0 nmr=1 alpha=22.23 b3lypd3vdz=-78.533255250466 
     C      6.04520000     -0.70090000      1.09900000   -0.0540   59.7825
     C      6.26560000     -1.40060000      2.28170000   -0.0581   59.2689
     H      5.87840000      0.37770000      1.10230000    0.0278   25.1809
     H      6.27140000     -0.86200000      3.23210000    0.0266   25.3218
     H      6.03240000     -1.26230000      0.15310000    0.0284   25.2116
     H      6.42710000     -2.48870000      2.28190000    0.0293   25.1323
