18
chgs=0 nmr=1 alpha=67.25 b3lypd3vdz=-326.928750043593 
     N      3.11920000     -0.50300000     -1.99710000   -0.0677  166.7137
     C      1.94450000     -0.78610000     -1.39400000    0.1751   36.4638
     O      1.25770000      0.07870000     -0.82990000   -0.2694 -119.5929
     C      2.64600000      1.59200000      2.95990000    0.0023  163.2366
     C      2.08100000      0.19180000      3.00120000   -0.0756   39.3651
     C      2.64120000     -0.80650000      2.18810000    0.0017   61.5123
     C      2.37390000      2.32220000      1.61150000   -0.0138  168.9436
     H      3.66780000     -1.30950000     -2.29190000    0.0904   27.9939
     H      3.69420000      0.28340000     -1.77130000    0.0995   27.6451
     H      1.63630000     -1.84080000     -1.44490000   -0.0033   23.3644
     H      3.74190000      1.55800000      3.06080000    0.0136   29.1476
     H      2.25480000      2.20950000      3.78430000    0.0028   29.5755
     H      3.50920000     -0.57500000      1.56880000   -0.0042   25.7257
     H      2.62670000      1.62560000      0.80080000    0.0234   30.0284
     H      1.22090000     -0.08240000      3.62970000   -0.0130   24.3651
     H      2.23470000     -1.82840000      2.16590000    0.0119   25.5756
     H      2.99190000      3.22490000      1.49700000    0.0016   30.2764
     H      1.31330000      2.59870000      1.51820000    0.0247   30.0328
