15
chgs=0 nmr=1 alpha=54.06 b3lypd3vdz=-378.915305076065 
     C     -2.54580000     -3.08320000     -1.64360000    0.1669   38.1938
     O     -1.85310000     -3.71080000     -2.46200000   -0.3013  -97.6952
     N     -2.40610000     -3.22870000     -0.31420000   -0.0466  158.7030
     N     -2.50100000      0.37410000      2.72560000   -0.1394  154.9240
     C     -3.06370000     -0.92600000      3.11590000    0.0515  162.5803
     C     -1.91270000      0.47570000      1.51600000    0.2122   37.2714
     O     -1.83470000     -0.51030000      0.76680000   -0.2987 -105.4635
     H     -3.05840000     -2.77050000      0.31520000    0.0882   27.1616
     H     -3.26280000     -2.32260000     -1.98630000   -0.0142   23.2803
     H     -1.68320000     -3.77990000      0.10240000    0.0894   27.2936
     H     -2.29450000     -1.70630000      3.05990000    0.0441   28.3776
     H     -2.69620000      1.10040000      3.38470000    0.0846   26.8403
     H     -3.86060000     -1.26200000      2.43610000    0.0409   28.6063
     H     -3.40980000     -0.74980000      4.14510000    0.0234   29.0347
     H     -1.50900000      1.44310000      1.18240000   -0.0008   23.0778
