18
chgs=0 nmr=1 alpha=65.99 b3lypd3vdz=-326.914210976102 
     C      0.45840000     -1.45210000      3.78880000   -0.0622   57.8900
     C      1.01760000     -2.42980000      2.95410000   -0.0447   54.4597
     C     -1.91270000      0.47570000      1.51600000    0.2158   38.7840
     O     -1.83470000     -0.51030000      0.76680000   -0.2955 -122.1564
     N     -2.50100000      0.37410000      2.72560000   -0.1427  122.8802
     C     -3.06370000     -0.92600000      3.11590000    0.0655  155.0996
     C     -3.54840000     -0.67920000      4.55730000   -0.0532  171.5882
     H     -0.38490000     -1.72720000      4.42550000    0.0287   25.2836
     H      0.87270000     -0.43320000      3.79930000    0.0231   25.1170
     H      1.88690000     -2.17120000      2.33170000    0.0328   24.9538
     H      0.56610000     -3.43290000      2.95190000    0.0297   24.9415
     H     -2.29450000     -1.70630000      3.05990000    0.0358   28.0272
     H     -4.39500000     -1.32650000      4.82530000    0.0306   29.8382
     H     -2.72210000     -0.89730000      5.25360000    0.0351   29.6537
     H     -1.50900000      1.44310000      1.18240000   -0.0147   23.2086
     H     -2.69620000      1.10040000      3.38470000    0.0750   27.7949
     H     -3.86060000     -1.26200000      2.43610000    0.0271   28.4551
     H     -3.78740000      0.39440000      4.57090000    0.0137   30.9366
