11
chgs=0 nmr=1 alpha=39.24 b3lypd3vdz=-268.204879550255 
     C      4.42820000      3.44170000      0.90960000    0.1842   -6.0463
     O      4.96590000      2.35460000      0.66000000   -0.2029 -462.3652
     C      3.96600000      0.65520000     -1.66450000   -0.0487  156.6151
     C      3.56570000      1.99100000     -2.32950000    0.1169   -5.7395
     O      4.40780000      2.72380000     -2.83520000   -0.2079 -370.7053
     H      4.93670000      4.38870000      0.67620000    0.0308   21.5282
     H      3.42440000      3.49910000      1.35580000    0.0194   21.4334
     H      3.89510000      0.83610000     -0.58100000    0.0554   28.9495
     H      3.33350000     -0.20980000     -1.91290000    0.0277   29.4016
     H      5.01370000      0.41680000     -1.90020000    0.0403   29.4971
     H      2.49780000      2.24810000     -2.27050000   -0.0152   21.4615
