15
chgs=0 nmr=1 alpha=55.73 b3lypd3vdz=-287.638572662 
     C      6.04520000     -0.70090000      1.09900000   -0.0633   54.7017
     C      6.26560000     -1.40060000      2.28170000   -0.0726   62.8607
     C      4.42820000      3.44170000      0.90960000    0.2066   35.6036
     O      4.96590000      2.35460000      0.66000000   -0.2761  -92.4497
     N      3.18890000      3.51260000      1.46050000   -0.1457  150.2612
     C      2.37390000      2.32220000      1.61150000    0.0549  165.7721
     H      5.87840000      0.37770000      1.10230000    0.0483   23.8156
     H      6.27140000     -0.86200000      3.23210000    0.0148   25.5185
     H      6.03240000     -1.26230000      0.15310000    0.0128   25.0501
     H      6.42710000     -2.48870000      2.28190000    0.0161   25.3717
     H      2.70330000      4.40390000      1.49810000    0.0872   27.1247
     H      2.62670000      1.62560000      0.80080000    0.0502   27.7850
     H      4.93670000      4.38870000      0.67620000   -0.0037   23.1526
     H      1.31330000      2.59870000      1.51820000    0.0244   29.1837
     H      2.56610000      1.80640000      2.56390000    0.0461   28.8116
