6
chgs=0 nmr=1 alpha=22.07 b3lypd3vdz=-78.525001628114 
     C      5.96040000     -2.19040000     -2.23880000   -0.0550   57.5107
     C      5.83470000     -1.03550000     -1.49250000   -0.0454   59.4944
     H      5.91250000     -2.32370000     -3.31810000    0.0240   25.2656
     H      6.15540000     -3.04570000     -1.57510000    0.0221   25.3244
     H      5.54490000     -0.04080000     -1.86200000    0.0295   24.8897
     H      5.98240000     -1.32830000     -0.44250000    0.0248   25.0218
