17
chgs=0 nmr=1 alpha=58.97 b3lypd3vdz=-197.579028718182 
     C      0.45840000     -1.45210000      3.78880000   -0.0651   55.4356
     C      1.01760000     -2.42980000      2.95410000   -0.0588   56.4079
     C     -3.54840000     -0.67920000      4.55730000   -0.0309  162.4995
     C     -3.88230000      0.82070000      4.57630000   -0.0579  172.8917
     C     -2.78870000      1.44460000      3.69700000   -0.0236  164.3124
     H     -0.38490000     -1.72720000      4.42550000    0.0332   25.0332
     H      0.87270000     -0.43320000      3.79930000    0.0291   24.9747
     H      1.88690000     -2.17120000      2.33170000    0.0300   24.9641
     H      0.56610000     -3.43290000      2.95190000    0.0291   24.9593
     H     -4.39500000     -1.32650000      4.82530000    0.0085   29.8431
     H     -2.72210000     -0.89730000      5.25360000    0.0263   29.7875
     H     -4.86980000      0.99170000      4.11760000    0.0085   30.1826
     H     -3.89940000      1.24920000      5.58850000    0.0064   30.2008
     H     -1.88090000      1.68360000      4.27730000    0.0209   29.7600
     H     -3.13200000      2.35020000      3.17990000    0.0091   29.8303
     H     -3.20230000     -0.85540000      3.52810000    0.0201   30.3242
     H     -2.57400000      0.64570000      2.97200000    0.0151   30.3427
