18
chgs=0 nmr=1 alpha=60.03 b3lypd3vdz=-363.995419481063 
     N      3.18890000      3.51260000      1.46050000   -0.2351  261.0309
     C      2.37390000      2.32220000      1.61150000    0.0466  162.2863
     C      1.94450000     -0.78610000     -1.39400000    0.1806   -6.5112
     O      1.25770000      0.07870000     -0.82990000   -0.2004 -458.8277
     C      1.75110000      3.61130000     -2.68940000   -0.0492  161.5770
     C      1.57950000      4.49420000     -1.45790000    0.1238   -0.2999
     O      2.47210000      5.11220000     -0.91980000   -0.1952 -337.6121
     H      2.70330000      4.40390000      1.49810000    0.0822   31.4789
     H      2.62670000      1.62560000      0.80080000    0.0049   28.8181
     H      4.10140000      3.46040000      1.05490000    0.0682   32.3318
     H      1.31330000      2.59870000      1.51820000    0.0144   29.0111
     H      2.56610000      1.80640000      2.56390000    0.0012   28.7623
     H      1.63630000     -1.84080000     -1.44490000    0.0249   21.3319
     H      2.90130000     -0.55550000     -1.88520000    0.0198   21.3479
     H      2.50890000      4.05600000     -3.34560000    0.0397   29.8294
     H      0.79420000      3.49920000     -3.21900000    0.0282   29.4016
     H      2.12030000      2.62820000     -2.36210000    0.0619   29.3556
     H      0.55720000      4.43690000     -1.05590000   -0.0166   21.2254
