17
chgs=0 nmr=1 alpha=62.53 b3lypd3vdz=-346.740007939945 
     C      4.42820000      3.44170000      0.90960000    0.1843   -6.1013
     O      4.96590000      2.35460000      0.66000000   -0.2045 -459.7420
     C      2.64120000     -0.80650000      2.18810000   -0.0683   59.4186
     C      2.12680000     -2.09980000      2.16000000   -0.0572   59.3286
     C      3.96600000      0.65520000     -1.66450000   -0.0604  156.3468
     C      3.56570000      1.99100000     -2.32950000    0.1172   -5.8018
     O      4.40780000      2.72380000     -2.83520000   -0.2080 -370.7778
     H      4.93670000      4.38870000      0.67620000    0.0315   21.5487
     H      3.42440000      3.49910000      1.35580000    0.0204   21.4575
     H      3.50920000     -0.57500000      1.56880000    0.0440   25.0686
     H      2.57640000     -2.86320000      1.52270000    0.0275   25.1905
     H      2.20230000     -0.02440000      2.82510000    0.0240   25.0979
     H      1.25750000     -2.35840000      2.78240000    0.0279   25.2106
     H      3.89510000      0.83610000     -0.58100000    0.0669   28.8924
     H      3.33350000     -0.20980000     -1.91290000    0.0296   29.3553
     H      5.01370000      0.41680000     -1.90020000    0.0392   29.4718
     H      2.49780000      2.24810000     -2.27050000   -0.0140   21.4806
