10
chgs=0 nmr=1 alpha=45.1 b3lypd3vdz=-155.870972007157 
     C      6.25690000     -2.82580000     -0.09490000   -0.0140   69.2556
     C      6.47650000     -3.53090000      1.09720000    0.0017   60.2123
     C      6.26560000     -1.40060000      2.28170000   -0.0011   68.9184
     C      6.47310000     -2.79860000      2.28190000   -0.0253   53.1757
     H      6.64460000     -4.61050000      1.09690000   -0.0165   25.0124
     H      6.27140000     -0.86200000      3.23210000    0.0163   26.0729
     H      6.63660000     -3.31610000      3.23010000   -0.0181   24.9744
     H      6.08070000     -1.74010000     -0.10890000    0.0175   23.9116
     H      6.21640000     -3.17810000     -1.13620000    0.0143   25.9518
     H      6.09140000     -0.84760000      1.34690000    0.0250   23.7402
