16
chgs=0 nmr=1 alpha=71.84 b3lypd3vdz=-325.636204824143 
     C      4.42820000      3.44170000      0.90960000    0.1846   -6.0341
     O      4.96590000      2.35460000      0.66000000   -0.1855 -470.7143
     C      6.02880000     -1.42020000     -0.11300000   -0.0223   74.2746
     N      6.20610000     -3.26820000     -1.40250000   -0.0480  188.1945
     C      6.25690000     -2.82580000     -0.09490000    0.0015   47.4306
     C      6.04520000     -0.70090000      1.09900000    0.0041   55.3858
     C      6.26560000     -1.40060000      2.28170000   -0.0455   95.1833
     H      4.93670000      4.38870000      0.67620000    0.0190   21.3222
     H      3.42440000      3.49910000      1.35580000    0.0215   21.3176
     H      6.40150000     -4.21130000     -1.70730000    0.0872   28.7446
     H      5.87840000      0.37770000      1.10230000   -0.0251   23.9497
     H      6.27140000     -0.86200000      3.23210000   -0.0138   27.4553
     H      5.88110000     -1.12740000     -1.16300000   -0.0675   25.5839
     H      6.02880000     -2.49070000     -2.00580000    0.0837   26.8564
     H      6.42920000     -3.37890000      0.84020000    0.0206   21.6804
     H      6.42710000     -2.48870000      2.28190000   -0.0145   25.1727
