17
chgs=0 nmr=1 alpha=59.31 b3lypd3vdz=-197.578051008117 
     C      0.45840000     -1.45210000      3.78880000   -0.0598   55.0364
     C      1.01760000     -2.42980000      2.95410000   -0.0602   56.3312
     C     -3.06370000     -0.92600000      3.11590000   -0.0215  163.7314
     C     -3.54840000     -0.67920000      4.55730000   -0.0666  173.6175
     C     -3.88230000      0.82070000      4.57630000   -0.0191  162.7931
     H     -0.38490000     -1.72720000      4.42550000    0.0404   24.9272
     H      0.87270000     -0.43320000      3.79930000    0.0274   24.8928
     H      1.88690000     -2.17120000      2.33170000    0.0307   24.9491
     H      0.56610000     -3.43290000      2.95190000    0.0295   24.9642
     H     -2.29450000     -1.70630000      3.05990000    0.0090   29.6579
     H     -4.39500000     -1.32650000      4.82530000    0.0070   30.2325
     H     -2.72210000     -0.89730000      5.25360000    0.0093   30.1730
     H     -4.86980000      0.99170000      4.11760000    0.0205   29.7498
     H     -3.89940000      1.24920000      5.58850000    0.0081   29.8726
     H     -2.64250000      0.04720000      2.82370000    0.0113   30.5097
     H     -3.86060000     -1.26200000      2.43610000    0.0163   29.7904
     H     -3.09900000      1.26760000      3.94650000    0.0175   30.3924
