16
chgs=0 nmr=1 alpha=58.21 b3lypd3vdz=-362.858213303577 
     C      1.94450000     -0.78610000     -1.39400000    0.1992  -10.4168
     O      1.25770000      0.07870000     -0.82990000   -0.2048 -426.5861
     C      2.37390000      2.32220000      1.61150000   -0.0079  157.0007
     C      0.90310000      2.70560000      1.48210000    0.0606   24.5598
     O      0.49730000      3.84920000      1.74780000   -0.2936  -66.2631
     C      2.64600000      1.59200000      2.95990000   -0.0222  175.6186
     N      0.09590000      1.69900000      1.09290000   -0.0535  164.5919
     H      1.63630000     -1.84080000     -1.44490000    0.0343   21.3038
     H      2.90130000     -0.55550000     -1.88520000    0.0364   21.3226
     H      2.62670000      1.62560000      0.80080000   -0.0029   29.6195
     H      3.74190000      1.55800000      3.06080000    0.0168   30.3051
     H      2.25480000      2.20950000      3.78430000    0.0355   30.0454
     H      0.50170000      0.84260000      0.71010000    0.0860   24.4001
     H      2.99190000      3.22490000      1.49700000    0.0187   29.7302
     H      2.23450000      0.57230000      2.99000000    0.0168   30.4954
     H     -0.90000000      1.78450000      1.06430000    0.0807   27.6870
