17
chgs=0 nmr=1 alpha=71.06 b3lypd3vdz=-309.630612836479 
     C     -3.06370000     -0.92600000      3.11590000   -0.0626  159.1707
     C     -4.17810000     -1.39590000      2.16520000    0.1283   -6.9692
     O     -4.36040000     -2.59610000      1.96420000   -0.2070 -391.1670
     C      2.08100000      0.19180000      3.00120000   -0.0012   70.9450
     C      0.98480000     -0.15760000      3.80220000   -0.0237   55.9942
     C      0.45840000     -1.45210000      3.78880000   -0.0311   52.9066
     C      1.01760000     -2.42980000      2.95410000    0.0004   68.9846
     H     -2.29450000     -1.70630000      3.05990000    0.0580   29.2591
     H     -2.64250000      0.04720000      2.82370000    0.0294   29.4801
     H     -3.40980000     -0.74980000      4.14510000    0.0512   29.4269
     H     -4.78910000     -0.61280000      1.69260000   -0.0062   21.2459
     H      0.53070000      0.59650000      4.45220000   -0.0214   25.1479
     H     -0.38490000     -1.72720000      4.42550000   -0.0106   24.9002
     H      2.49250000      1.21150000      2.97110000    0.0234   25.8295
     H      2.51990000     -0.59030000      2.36420000    0.0224   23.8313
     H      1.88690000     -2.17120000      2.33170000    0.0254   23.5664
     H      0.56610000     -3.43290000      2.95190000    0.0255   25.7584
