18
chgs=0 nmr=1 alpha=66.42 b3lypd3vdz=-326.881872185687 
     C      0.45840000     -1.45210000      3.78880000   -0.0550   55.2887
     C      1.01760000     -2.42980000      2.95410000   -0.0642   56.8710
     N     -2.50100000      0.37410000      2.72560000   -0.1745  232.3113
     C     -3.06370000     -0.92600000      3.11590000   -0.0416  133.0581
     C     -4.17810000     -1.39590000      2.16520000    0.1896  -20.7878
     O     -4.36040000     -2.59610000      1.96420000   -0.2135 -364.2007
     C     -3.54840000     -0.67920000      4.55730000    0.0095  166.1996
     H     -0.38490000     -1.72720000      4.42550000    0.0367   25.0594
     H      0.87270000     -0.43320000      3.79930000    0.0256   24.8209
     H      1.88690000     -2.17120000      2.33170000    0.0300   25.0008
     H      0.56610000     -3.43290000      2.95190000    0.0333   24.9375
     H     -2.29450000     -1.70630000      3.05990000    0.0104   28.2524
     H     -4.39500000     -1.32650000      4.82530000    0.0313   30.0689
     H     -2.72210000     -0.89730000      5.25360000    0.0384   29.2989
     H     -2.06490000      0.44940000      1.82890000    0.0822   30.4499
     H     -2.69620000      1.10040000      3.38470000    0.0743   31.4796
     H     -4.78910000     -0.61280000      1.69260000   -0.0301   21.2685
     H     -3.78740000      0.39440000      4.57090000    0.0176   31.0300
