13
chgs=0 nmr=1 alpha=42.3 b3lypd3vdz=-174.364430063576 
     C     -5.95950000     -0.75220000      0.59260000    0.1053  147.3277
     C     -6.72760000      0.54920000      0.23110000   -0.0533  159.7430
     C     -7.17340000      0.66390000     -1.24020000   -0.0242  176.1248
     N     -4.93360000     -0.42760000      1.58080000   -0.2239  244.4736
     H     -6.64650000     -1.48990000      1.03030000    0.0001   28.3847
     H     -7.60780000      0.64120000      0.88650000    0.0144   29.2802
     H     -6.07680000      1.40620000      0.44970000    0.0021   30.8984
     H     -6.30940000      0.50900000     -1.90500000    0.0201   30.4847
     H     -7.93760000     -0.07880000     -1.49670000    0.0200   30.6216
     H     -4.60560000      0.53540000      1.61300000    0.0734   32.0383
     H     -5.59000000     -1.27100000     -0.30420000   -0.0157   28.9082
     H     -7.57180000      1.66990000     -1.43800000    0.0135   30.3874
     H     -4.37810000     -1.13950000      2.01050000    0.0682   31.9263
