15
chgs=0 nmr=1 alpha=54.39 b3lypd3vdz=-287.682484803874 
     C     -5.95950000     -0.75220000      0.59260000    0.0698  164.1130
     C     -3.06370000     -0.92600000      3.11590000   -0.0089  156.7420
     C     -4.17810000     -1.39590000      2.16520000    0.1054   24.8510
     O     -4.36040000     -2.59610000      1.96420000   -0.2840  -74.5122
     C     -3.54840000     -0.67920000      4.55730000   -0.0144  177.6388
     N     -4.93360000     -0.42760000      1.58080000   -0.1537  159.7275
     H     -6.64650000     -1.48990000      1.03030000    0.0422   28.3845
     H     -2.29450000     -1.70630000      3.05990000    0.0288   29.4504
     H     -4.39500000     -1.32650000      4.82530000    0.0338   30.1879
     H     -2.72210000     -0.89730000      5.25360000    0.0269   30.0147
     H     -4.60560000      0.53540000      1.61300000    0.0851   27.3327
     H     -5.59000000     -1.27100000     -0.30420000    0.0347   28.7205
     H     -6.50330000      0.16910000      0.33670000    0.0193   29.2671
     H     -2.64250000      0.04720000      2.82370000   -0.0037   29.4481
     H     -3.78740000      0.39440000      4.57090000    0.0185   29.9648
