9
chgs=0 nmr=1 alpha=30.97 b3lypd3vdz=-209.061581594207 
     N      3.18890000      3.51260000      1.46050000   -0.2232  267.1725
     C      2.37390000      2.32220000      1.61150000    0.0703  138.9135
     C      0.90310000      2.70560000      1.48210000    0.1565  -12.6267
     O      0.49730000      3.84920000      1.74780000   -0.2173 -350.7943
     H      2.70330000      4.40390000      1.49810000    0.0875   29.9977
     H      2.62670000      1.62560000      0.80080000    0.0156   27.6545
     H      4.10140000      3.46040000      1.05490000    0.0758   32.3030
     H      2.56610000      1.80640000      2.56390000    0.0368   27.6451
     H      0.24430000      1.88400000      1.16440000   -0.0019   21.1104
