4
chgs=0 nmr=1 alpha=13.37 b3lypd3vdz=-114.447749254952 
     C     -2.54580000     -3.08320000     -1.64360000    0.1771   -5.8653
     O     -1.85310000     -3.71080000     -2.46200000   -0.2101 -491.2555
     H     -3.26280000     -2.32260000     -1.98630000    0.0156   21.3227
     H     -2.43150000     -3.20220000     -0.55600000    0.0173   21.2427
