8
chgs=0 nmr=1 alpha=24.43 b3lypd3vdz=-79.763720408061 
     C     -5.95950000     -0.75220000      0.59260000   -0.0594  184.6044
     C     -6.72760000      0.54920000      0.23110000   -0.0654  184.4814
     H     -6.64650000     -1.48990000      1.03030000    0.0166   30.5090
     H     -7.60780000      0.64120000      0.88650000    0.0208   30.3357
     H     -6.07680000      1.40620000      0.44970000    0.0190   30.4798
     H     -5.18710000     -0.50780000      1.33670000    0.0255   30.2685
     H     -5.59000000     -1.27100000     -0.30420000    0.0211   30.3242
     H     -7.04570000      0.63100000     -0.81870000    0.0218   30.5144
