8
chgs=0 nmr=1 alpha=24.53 b3lypd3vdz=-79.764475506237 
     C     -3.54840000     -0.67920000      4.55730000   -0.0620  181.0955
     C     -3.88230000      0.82070000      4.57630000   -0.0605  181.1175
     H     -4.39500000     -1.32650000      4.82530000    0.0207   30.4094
     H     -2.72210000     -0.89730000      5.25360000    0.0193   30.3195
     H     -4.86980000      0.99170000      4.11760000    0.0201   30.2942
     H     -3.89940000      1.24920000      5.58850000    0.0210   30.3818
     H     -3.20230000     -0.85540000      3.52810000    0.0203   30.1354
     H     -3.09900000      1.26760000      3.94650000    0.0211   30.1137
