16
chgs=0 nmr=1 alpha=61.59 b3lypd3vdz=-271.514913876067 
     C      4.42820000      3.44170000      0.90960000    0.1858   -6.7596
     O      4.96590000      2.35460000      0.66000000   -0.1922 -463.5433
     C      2.64120000     -0.80650000      2.18810000   -0.0679   57.1891
     C      2.12680000     -2.09980000      2.16000000   -0.0621   61.0636
     C      6.02880000     -1.42020000     -0.11300000   -0.0870   59.1531
     C      6.04520000     -0.70090000      1.09900000   -0.0528   57.1340
     H      4.93670000      4.38870000      0.67620000    0.0221   21.2851
     H      3.42440000      3.49910000      1.35580000    0.0241   21.3004
     H      3.50920000     -0.57500000      1.56880000    0.0448   24.7752
     H      2.57640000     -2.86320000      1.52270000    0.0244   25.3373
     H      2.20230000     -0.02440000      2.82510000    0.0152   25.1944
     H      1.25750000     -2.35840000      2.78240000    0.0212   25.3568
     H      5.87840000      0.37770000      1.10230000    0.0533   23.5964
     H      5.88110000     -1.12740000     -1.16300000    0.0248   24.8201
     H      6.20500000     -2.50590000     -0.09900000    0.0174   25.4986
     H      6.21940000     -1.25390000      2.03380000    0.0289   24.7376
