22
chgs=0 nmr=1 alpha=78.67 b3lypd3vdz=-292.147793613221 
     C      2.64120000     -0.80650000      2.18810000   -0.0639   57.8213
     C      2.12680000     -2.09980000      2.16000000   -0.0464   59.4946
     C      6.04520000     -0.70090000      1.09900000   -0.0610   59.4436
     C      6.26560000     -1.40060000      2.28170000   -0.0455   56.4224
     N      0.29000000     -2.47520000     -0.72790000   -0.2079  241.9856
     C      1.51630000     -2.25140000     -1.46470000    0.0413  150.0335
     C      1.36760000     -2.75080000     -2.94330000   -0.0113  165.8763
     H      3.50920000     -0.57500000      1.56880000    0.0296   25.0930
     H      2.57640000     -2.86320000      1.52270000    0.0205   25.3699
     H      2.20230000     -0.02440000      2.82510000    0.0182   25.1824
     H      1.25750000     -2.35840000      2.78240000    0.0188   25.2742
     H      5.87840000      0.37770000      1.10230000    0.0331   25.1772
     H      6.27140000     -0.86200000      3.23210000    0.0290   25.2650
     H      6.03240000     -1.26230000      0.15310000    0.0305   25.1291
     H      6.42710000     -2.48870000      2.28190000    0.0305   24.9843
     H     -0.46940000     -1.80640000     -0.84560000    0.0774   31.2730
     H      2.30700000     -2.84320000     -0.97730000    0.0116   28.7089
     H      2.19480000     -2.32230000     -3.53340000   -0.0074   30.3913
     H      0.13210000     -3.33170000     -0.23650000    0.0719   31.0997
     H      1.82450000     -1.19670000     -1.41380000    0.0135   28.6899
     H      0.44400000     -2.35480000     -3.39070000    0.0055   30.6747
     H      1.40180000     -3.84800000     -3.01410000    0.0120   30.2360
