11
chgs=0 nmr=1 alpha=44.22 b3lypd3vdz=-322.369112743508 
     N      2.23970000      2.31020000     -2.25620000   -0.1619  150.3727
     C      1.75110000      3.61130000     -2.68940000    0.1019  147.7995
     C      1.57950000      4.49420000     -1.45790000    0.1376    2.4188
     O      2.47210000      5.11220000     -0.91980000   -0.1681 -353.1751
     C      3.56570000      1.99100000     -2.32950000    0.2095   40.3522
     O      4.40780000      2.72380000     -2.83520000   -0.2624  -97.9906
     H      1.62560000      1.68770000     -1.72520000    0.0903   27.0704
     H      2.50890000      4.05600000     -3.34560000    0.0612   26.6643
     H      0.79420000      3.49920000     -3.21900000    0.0213   28.5197
     H      0.55720000      4.43690000     -1.05590000   -0.0242   21.5338
     H      3.85070000      1.03990000     -1.85600000   -0.0051   23.3963
