10
chgs=0 nmr=1 alpha=34.34 b3lypd3vdz=-284.270060032033 
     C      1.57950000      4.49420000     -1.45790000    0.1837    1.7101
     O      2.47210000      5.11220000     -0.91980000   -0.1936 -406.6631
     C      4.42820000      3.44170000      0.90960000    0.1715   35.9692
     O      4.96590000      2.35460000      0.66000000   -0.2916 -108.3870
     N      3.18890000      3.51260000      1.46050000   -0.0791  159.7185
     H      1.70330000      3.85730000     -2.34620000    0.0198   21.5378
     H      0.55720000      4.43690000     -1.05590000    0.0049   21.5914
     H      2.70330000      4.40390000      1.49810000    0.0956   27.5372
     H      4.93670000      4.38870000      0.67620000    0.0000   23.2255
     H      2.62700000      2.69190000      1.56460000    0.0889   27.9874
