16
chgs=0 nmr=1 alpha=61.21 b3lypd3vdz=-271.563959427087 
     C      6.02880000     -1.42020000     -0.11300000   -0.0457   53.0867
     C      5.43980000      0.31980000     -1.99600000    0.0381  175.4015
     C      5.83470000     -1.03550000     -1.49250000   -0.1312   35.6426
     C      5.13490000      4.75780000      0.58520000   -0.0408  162.9301
     C      4.42820000      3.44170000      0.90960000    0.1212  -11.5110
     O      4.96590000      2.35460000      0.66000000   -0.2108 -401.7146
     H      5.58910000      0.39330000     -3.08410000    0.0144   30.0140
     H      6.04570000      1.11050000     -1.53420000    0.0413   28.8468
     H      6.20500000     -2.50590000     -0.09900000    0.0088   25.5340
     H      6.04160000     -0.85880000      0.83290000    0.0212   24.4694
     H      4.39210000      0.55820000     -1.76030000    0.0420   29.4469
     H      5.93480000     -1.95560000     -2.08700000   -0.0079   24.3238
     H      5.99190000      4.83530000      1.27870000    0.0630   29.4525
     H      4.47090000      5.61460000      0.77610000    0.0243   29.2847
     H      5.50070000      4.80480000     -0.45110000    0.0608   29.3598
     H      3.42440000      3.49910000      1.35580000    0.0012   20.9555
