13
chgs=0 nmr=1 alpha=45.78 b3lypd3vdz=-323.512079722223 
     C     -1.91270000      0.47570000      1.51600000    0.1753   -7.6001
     O     -1.83470000     -0.51030000      0.76680000   -0.2052 -489.0852
     C     -1.36200000     -4.02470000      0.28750000    0.0651  136.6619
     C      0.07660000     -3.63300000     -0.06370000    0.1428  -24.5869
     O      0.98870000     -4.40750000      0.25670000   -0.2301 -382.2229
     N     -2.40610000     -3.22870000     -0.31420000   -0.2066  256.4978
     H     -1.50900000      1.44310000      1.18240000    0.0224   21.2480
     H     -2.39240000      0.39280000      2.50240000    0.0211   21.2325
     H     -1.46800000     -3.96920000      1.37910000    0.0437   28.1182
     H     -1.43760000     -5.08370000     -0.00650000    0.0292   27.7025
     H     -3.05840000     -2.77050000      0.31520000    0.0816   30.5697
     H      0.25030000     -2.69080000     -0.60420000   -0.0130   20.8678
     H     -2.51000000     -3.12050000     -1.30290000    0.0738   30.7757
