13
chgs=0 nmr=1 alpha=42.29 b3lypd3vdz=-269.41796736149 
     C     -2.83870000     -1.09330000     -3.13790000    0.0963  142.1262
     O     -1.71160000     -0.46870000     -2.50910000   -0.2760  332.7368
     C     -1.88600000      2.12790000     -0.35750000   -0.0546  159.5345
     C     -3.36750000      2.38270000     -0.31390000    0.1185   -5.2392
     O     -4.04740000      2.27800000      0.70320000   -0.2149 -354.3098
     H     -2.49380000     -1.73900000     -3.96220000    0.0156   27.8358
     H     -0.90150000     -0.86780000     -2.89010000    0.1499   31.4116
     H     -3.34220000     -1.75290000     -2.41580000    0.0293   27.7250
     H     -3.51190000     -0.31800000     -3.53260000    0.0338   27.7686
     H     -1.37820000      3.00360000     -0.78400000    0.0310   29.7110
     H     -1.69840000      1.28000000     -1.04010000    0.0613   28.2045
     H     -1.50290000      1.90990000      0.65030000    0.0317   29.7052
     H     -3.79600000      2.66310000     -1.28740000   -0.0219   21.4188
