12
chgs=0 nmr=1 alpha=43.12 b3lypd3vdz=-248.395227453093 
     C     -1.35040000      1.82310000      1.05140000    0.0199  170.4311
     C     -1.91270000      0.47570000      1.51600000    0.0817   29.7631
     O     -1.83470000     -0.51030000      0.76680000   -0.3029  -83.6915
     N     -2.50100000      0.37410000      2.72560000   -0.1449  157.3626
     C     -3.06370000     -0.92600000      3.11590000    0.0657  161.4729
     H     -1.61820000      2.64140000      1.72800000    0.0002   30.3655
     H     -2.29450000     -1.70630000      3.05990000    0.0431   28.3945
     H     -0.25490000      1.72910000      1.08280000    0.0551   29.5465
     H     -1.73350000      2.04110000      0.04360000    0.0550   29.5324
     H     -2.69620000      1.10040000      3.38470000    0.0774   26.8655
     H     -3.86060000     -1.26200000      2.43610000    0.0399   28.5519
     H     -3.40980000     -0.74980000      4.14510000    0.0097   29.2971
