10
chgs=0 nmr=1 alpha=35.95 b3lypd3vdz=-193.035270747358 
     C     -5.95950000     -0.75220000      0.59260000   -0.0426  152.2682
     C     -5.44150000     -1.47950000     -0.66470000    0.1499  -10.6453
     O     -6.22450000     -2.15670000     -1.31890000   -0.2062 -365.1034
     C     -6.72760000      0.54920000      0.23110000   -0.0316  180.2824
     H     -6.64650000     -1.48990000      1.03030000    0.0363   29.4237
     H     -7.60780000      0.64120000      0.88650000    0.0333   29.9736
     H     -6.07680000      1.40620000      0.44970000    0.0261   30.3061
     H     -5.18710000     -0.50780000      1.33670000    0.0102   29.0153
     H     -4.39340000     -1.31500000     -0.95530000   -0.0097   20.9376
     H     -7.04570000      0.63100000     -0.81870000    0.0343   30.5457
