11
chgs=0 nmr=1 alpha=37.87 b3lypd3vdz=-264.421432378525 
     N      0.09590000      1.69900000      1.09290000   -0.2282  257.6116
     C     -1.35040000      1.82310000      1.05140000    0.1471  145.9882
     C     -1.91270000      0.47570000      1.51600000    0.0801   27.6542
     O     -1.83470000     -0.51030000      0.76680000   -0.2937  -54.5479
     N     -2.50100000      0.37410000      2.72560000   -0.0526  173.4509
     H      0.50170000      0.84260000      0.71010000    0.0914   31.0645
     H     -1.61820000      2.64140000      1.72800000   -0.0077   28.6037
     H      0.69480000      2.44590000      1.38170000    0.0755   31.5811
     H     -1.73350000      2.04110000      0.04360000    0.0200   27.9003
     H     -2.88390000     -0.51070000      2.99120000    0.0875   28.2004
     H     -2.69620000      1.10040000      3.38470000    0.0807   27.5305
