17
chgs=0 nmr=1 alpha=61.87 b3lypd3vdz=-346.799378625779 
     C      3.96600000      0.65520000     -1.66450000   -0.0927  149.3494
     C      3.56570000      1.99100000     -2.32950000    0.1615  -10.9051
     O      4.40780000      2.72380000     -2.83520000   -0.2114 -344.0387
     C      5.43980000      0.31980000     -1.99600000   -0.0123  180.1761
     C      5.13490000      4.75780000      0.58520000   -0.0389  163.3489
     C      4.42820000      3.44170000      0.90960000    0.1271  -13.6312
     O      4.96590000      2.35460000      0.66000000   -0.2117 -388.7247
     H      3.89510000      0.83610000     -0.58100000    0.0521   28.7477
     H      5.58910000      0.39330000     -3.08410000    0.0199   30.3976
     H      6.04570000      1.11050000     -1.53420000    0.0336   29.6857
     H      3.33350000     -0.20980000     -1.91290000    0.0182   29.1076
     H      2.49780000      2.24810000     -2.27050000   -0.0171   21.2456
     H      5.72960000     -0.67490000     -1.62650000    0.0090   30.5877
     H      5.99190000      4.83530000      1.27870000    0.0618   29.6255
     H      4.47090000      5.61460000      0.77610000    0.0248   29.3903
     H      5.50070000      4.80480000     -0.45110000    0.0744   29.2873
     H      3.42440000      3.49910000      1.35580000    0.0017   21.0956
