12
chgs=0 nmr=1 alpha=42.35 b3lypd3vdz=-248.399818647052 
     C      1.51630000     -2.25140000     -1.46470000   -0.0117  157.0626
     C      1.94450000     -0.78610000     -1.39400000    0.0614   24.0367
     O      1.25770000      0.07870000     -0.82990000   -0.2708 -107.3794
     C      1.36760000     -2.75080000     -2.94330000   -0.0334  176.1096
     N      3.11920000     -0.50300000     -1.99710000   -0.0476  175.3589
     H      2.30700000     -2.84320000     -0.97730000    0.0195   29.4823
     H      2.19480000     -2.32230000     -3.53340000    0.0098   30.3529
     H      3.66780000     -1.30950000     -2.29190000    0.0848   27.7296
     H      0.58470000     -2.42140000     -0.90500000    0.0287   29.4153
     H      0.44400000     -2.35480000     -3.39070000    0.0403   29.9674
     H      1.40180000     -3.84800000     -3.01410000    0.0258   30.1443
     H      3.69420000      0.28340000     -1.77130000    0.0933   27.8942
