13
chgs=0 nmr=1 alpha=56.52 b3lypd3vdz=-195.170145469725 
     C      2.64600000      1.59200000      2.95990000    0.0480  171.5801
     C      2.08100000      0.19180000      3.00120000   -0.1738   45.6493
     C      2.64120000     -0.80650000      2.18810000    0.0129   72.5502
     C      0.98480000     -0.15760000      3.80220000   -0.0063   52.6062
     C      0.45840000     -1.45210000      3.78880000    0.0121   70.8861
     H      3.74190000      1.55800000      3.06080000    0.0366   29.2634
     H      2.25480000      2.20950000      3.78430000    0.0143   30.2855
     H      3.50920000     -0.57500000      1.56880000   -0.0051   26.3412
     H      0.53070000      0.59650000      4.45220000   -0.0326   25.1767
     H     -0.38490000     -1.72720000      4.42550000    0.0145   26.1734
     H      2.45380000      2.10780000      2.00750000    0.0442   29.2922
     H      2.23470000     -1.82840000      2.16590000    0.0155   23.9385
     H      0.89720000     -2.21930000      3.13390000    0.0196   24.0681
