10
chgs=0 nmr=1 alpha=49.93 b3lypd3vdz=-155.864173077367 
     C      6.02880000     -1.42020000     -0.11300000   -0.0421   33.8088
     C      6.25690000     -2.82580000     -0.09490000   -0.0013   29.4633
     C      6.47650000     -3.53090000      1.09720000   -0.0047   75.1499
     C      5.83470000     -1.03550000     -1.49250000   -0.0006   47.0446
     H      6.64460000     -4.61050000      1.09690000    0.0222   26.1769
     H      6.04160000     -0.85880000      0.83290000   -0.0093   23.8639
     H      6.21640000     -3.17810000     -1.13620000   -0.0242   23.7160
     H      6.47380000     -2.95250000      2.03290000    0.0162   25.8025
     H      5.54490000     -0.04080000     -1.86200000    0.0222   25.0048
     H      5.93480000     -1.95560000     -2.08700000    0.0215   24.2939
