13
chgs=0 nmr=1 alpha=46.35 b3lypd3vdz=-323.541733652359 
     N      0.29000000     -2.47520000     -0.72790000   -0.1798  262.0454
     C      1.51630000     -2.25140000     -1.46470000   -0.0423  125.7979
     C      1.94450000     -0.78610000     -1.39400000    0.2160  -12.4518
     O      1.25770000      0.07870000     -0.82990000   -0.2079 -370.1107
     C      1.36760000     -2.75080000     -2.94330000    0.1819  128.3081
     O      0.17140000     -2.23790000     -3.52280000   -0.2795  305.0649
     H     -0.46940000     -1.80640000     -0.84560000    0.0897   29.8623
     H      2.30700000     -2.84320000     -0.97730000    0.0084   28.4344
     H      2.19480000     -2.32230000     -3.53340000    0.0065   27.4844
     H     -0.55590000     -2.85860000     -3.27480000    0.1395   30.0687
     H      0.13210000     -3.33170000     -0.23650000    0.0752   31.7524
     H      2.90130000     -0.55550000     -1.88520000   -0.0103   21.2767
     H      1.40180000     -3.84800000     -3.01410000    0.0028   28.2033
