13
chgs=0 nmr=1 alpha=46.51 b3lypd3vdz=-323.573525979446 
     C      3.96600000      0.65520000     -1.66450000   -0.0441  155.8184
     C      3.56570000      1.99100000     -2.32950000    0.1228   -5.3301
     O      4.40780000      2.72380000     -2.83520000   -0.2089 -367.1969
     C      4.42820000      3.44170000      0.90960000    0.1825   36.6617
     O      4.96590000      2.35460000      0.66000000   -0.2796 -103.0550
     N      3.18890000      3.51260000      1.46050000   -0.0729  163.7441
     H      3.89510000      0.83610000     -0.58100000    0.0525   28.5267
     H      3.33350000     -0.20980000     -1.91290000    0.0204   29.4693
     H      5.01370000      0.41680000     -1.90020000    0.0403   29.4732
     H      2.49780000      2.24810000     -2.27050000   -0.0232   21.3346
     H      2.70330000      4.40390000      1.49810000    0.0985   27.4575
     H      4.93670000      4.38870000      0.67620000    0.0131   23.4015
     H      2.62700000      2.69190000      1.56460000    0.0986   27.5424
