19
chgs=0 nmr=1 alpha=59.9 b3lypd3vdz=-385.078704582247 
     C     -2.83870000     -1.09330000     -3.13790000    0.0996  143.8658
     O     -1.71160000     -0.46870000     -2.50910000   -0.3150  336.0547
     O      0.17140000     -2.23790000     -3.52280000   -0.2925  317.7866
     C      1.36760000     -2.75080000     -2.94330000    0.0974  141.6598
     C     -1.35040000      1.82310000      1.05140000   -0.0296  163.0549
     C     -1.91270000      0.47570000      1.51600000    0.1071  -11.0639
     O     -1.83470000     -0.51030000      0.76680000   -0.2098 -429.2806
     H     -2.49380000     -1.73900000     -3.96220000   -0.0082   28.3992
     H     -0.90150000     -0.86780000     -2.89010000    0.1338   28.6561
     H     -3.34220000     -1.75290000     -2.41580000    0.0112   28.0438
     H     -3.51190000     -0.31800000     -3.53260000    0.0176   28.0654
     H     -0.55590000     -2.85860000     -3.27480000    0.1663   31.1161
     H      2.19480000     -2.32230000     -3.53340000    0.0367   27.7769
     H      1.47190000     -2.40040000     -1.90580000    0.0318   27.5648
     H      1.40180000     -3.84800000     -3.01410000    0.0237   27.7927
     H     -1.61820000      2.64140000      1.72800000    0.0135   29.5534
     H     -0.25490000      1.72910000      1.08280000    0.0552   29.6693
     H     -1.73350000      2.04110000      0.04360000    0.0712   29.1610
     H     -2.39240000      0.39280000      2.50240000   -0.0100   20.8727
