14
chgs=0 nmr=1 alpha=60.75 b3lypd3vdz=-270.322329124435 
     C      4.42820000      3.44170000      0.90960000    0.1852   -6.6347
     O      4.96590000      2.35460000      0.66000000   -0.1886 -466.6264
     C      6.02880000     -1.42020000     -0.11300000   -0.0248   69.5983
     C      6.04520000     -0.70090000      1.09900000    0.0052   57.6191
     C      6.26560000     -1.40060000      2.28170000   -0.0265   52.4606
     C      6.47310000     -2.79860000      2.28190000   -0.0057   70.7017
     H      4.93670000      4.38870000      0.67620000    0.0215   21.3025
     H      3.42440000      3.49910000      1.35580000    0.0229   21.3004
     H      5.87840000      0.37770000      1.10230000   -0.0178   23.5562
     H      6.27140000     -0.86200000      3.23210000   -0.0250   24.9192
     H      6.63660000     -3.31610000      3.23010000    0.0114   26.1801
     H      5.88110000     -1.12740000     -1.16300000    0.0123   25.6236
     H      6.20500000     -2.50590000     -0.09900000    0.0077   24.0804
     H      6.47580000     -3.37700000      1.34620000    0.0222   23.7731
