13
b3lypd3vdz=-265.605402110423 
     N     -4.14050000     -1.27530000     -1.02540000
     C     -3.54700000     -2.02120000     -2.12210000
     N     -2.50100000      0.37410000      2.72560000
     C     -1.91270000      0.47570000      1.51600000
     O     -1.83470000     -0.51030000      0.76680000
     H     -3.49920000     -0.77170000     -0.41380000
     H     -4.37040000     -2.54620000     -2.62940000
     H     -5.09330000     -1.42480000     -0.76120000
     H     -2.83000000     -2.78180000     -1.77940000
     H     -3.04350000     -1.36160000     -2.84420000
     H     -2.88390000     -0.51070000      2.99120000
     H     -2.69620000      1.10040000      3.38470000
     H     -1.50900000      1.44310000      1.18240000
