13
chgs=0 nmr=1 alpha=45.66 b3lypd3vdz=-323.575020809079 
     C      1.75110000      3.61130000     -2.68940000   -0.0442  160.8107
     C      1.57950000      4.49420000     -1.45790000    0.1212   -4.1657
     O      2.47210000      5.11220000     -0.91980000   -0.2022 -332.4918
     C      4.42820000      3.44170000      0.90960000    0.1720   35.7247
     O      4.96590000      2.35460000      0.66000000   -0.2945 -105.6919
     N      3.18890000      3.51260000      1.46050000   -0.0781  160.1945
     H      2.50890000      4.05600000     -3.34560000    0.0521   29.6206
     H      0.79420000      3.49920000     -3.21900000    0.0329   29.2900
     H      2.12030000      2.62820000     -2.36210000    0.0706   29.4755
     H      0.55720000      4.43690000     -1.05590000   -0.0158   21.3187
     H      2.70330000      4.40390000      1.49810000    0.0979   27.4447
     H      4.93670000      4.38870000      0.67620000    0.0003   23.2160
     H      2.62700000      2.69190000      1.56460000    0.0879   27.9414
