6
chgs=0 nmr=1 alpha=22.48 b3lypd3vdz=-78.5306563677 
     C      6.26560000     -1.40060000      2.28170000   -0.0606   55.9910
     C      6.47310000     -2.79860000      2.28190000   -0.0614   55.8926
     H      6.27140000     -0.86200000      3.23210000    0.0294   25.0889
     H      6.63660000     -3.31610000      3.23010000    0.0294   25.0872
     H      6.09140000     -0.84760000      1.34690000    0.0317   24.9851
     H      6.47580000     -3.37700000      1.34620000    0.0315   24.9985
