17
chgs=0 nmr=1 alpha=61.07 b3lypd3vdz=-342.996915076854 
     C     -5.95950000     -0.75220000      0.59260000    0.0794  156.4597
     C     -6.72760000      0.54920000      0.23110000   -0.0468  175.4599
     N     -2.50100000      0.37410000      2.72560000   -0.2106  251.8757
     C     -3.06370000     -0.92600000      3.11590000    0.0971  142.9659
     C     -4.17810000     -1.39590000      2.16520000    0.0954   24.2853
     O     -4.36040000     -2.59610000      1.96420000   -0.2879  -86.6046
     N     -4.93360000     -0.42760000      1.58080000   -0.1493  139.1398
     H     -6.64650000     -1.48990000      1.03030000    0.0293   28.1994
     H     -7.60780000      0.64120000      0.88650000    0.0345   29.7709
     H     -6.07680000      1.40620000      0.44970000    0.0092   31.0834
     H     -2.29450000     -1.70630000      3.05990000    0.0300   28.1545
     H     -4.60560000      0.53540000      1.61300000    0.0601   26.2320
     H     -5.59000000     -1.27100000     -0.30420000    0.0203   28.5368
     H     -7.04570000      0.63100000     -0.81870000    0.0281   30.0454
     H     -2.06490000      0.44940000      1.82890000    0.0857   31.1987
     H     -2.69620000      1.10040000      3.38470000    0.0861   30.2522
     H     -3.40980000     -0.74980000      4.14510000    0.0393   28.3098
