20
b3lypvdz=-236.9046901149 
C           0.11708800      0.98997700      0.20832000
C          -1.27928400      1.02270300     -0.42507800
C          -2.23392800     -0.11827100     -0.02161300
C          -3.57652300      0.01789600     -0.75285100
C           0.89569700      2.29175200     -0.00349800
C          -1.63764700     -1.51635500     -0.23799500
H           0.69673900      0.14474900     -0.20371000
H           0.02536700      0.79455200      1.29378600
H          -1.76569300      1.97910800     -0.15210300
H          -1.17658700      1.04238100     -1.52849000
H          -2.43070200     -0.00638200      1.06346400
H          -4.01053300      1.02351600     -0.61794500
H          -4.31213500     -0.71665900     -0.38520900
H          -3.45543400     -0.15144200     -1.83863600
H           1.89309600      2.24809600      0.46301400
H           1.03507900      2.50957100     -1.07675900
H           0.36076400      3.14999900      0.43916300
H          -0.74705600     -1.68769400      0.38667100
H          -2.37314300     -2.29789300      0.01758800
H          -1.34306600     -1.66690500     -1.29292100
