18
b3lypvdz=-235.678148371657 
C           0.79465900     -0.26354900     -0.15917000
C           0.00906200      1.01168800      0.17520600
C           2.21298600     -0.34222300      0.44647900
C          -1.45921600      0.93852300     -0.25480800
C           4.27568200      0.82774400     -0.42661500
C           3.09393500      0.85266500      0.19556200
H           0.22482300     -1.13892200      0.20539800
H           0.85471200     -0.37286200     -1.25808600
H           0.49116500      1.87912800     -0.30983500
H           0.06369100      1.20490500      1.26400900
H           2.11400200     -0.47777000      1.54174500
H           2.71859500     -1.24634800      0.06508700
H          -1.97859600      0.09994800      0.23956000
H          -2.00572900      1.86092200      0.00319400
H          -1.55398300      0.78700700     -1.34471500
H           4.69315300     -0.10423800     -0.82290700
H           4.87640500      1.73249500     -0.55647600
H           2.72435400      1.81248700      0.57917300
