17
b3lypvdz=-309.672973578128 
C           0.82622500     -0.35483200     -0.06476500
C           2.23573600     -0.42351000      0.55490500
C           2.15275700     -0.49114600      2.09152000
O           6.11950800     -0.20716600     -1.46921200
C           5.05001900     -0.32256500     -0.90049800
C           4.23354700      0.83251200     -0.48797900
C           3.03815900      0.78185400      0.13485700
H           0.28450700      0.54064000      0.28682700
H           0.23070800     -1.23684500      0.22307300
H           0.86890100     -0.31595600     -1.16524800
H           2.72442800     -1.34108500      0.19135100
H           1.55080600     -1.35797200      2.41064300
H           3.15096500     -0.57880500      2.54854400
H           1.67089100      0.41315000      2.50266100
H           4.64281900     -1.33620300     -0.65689200
H           4.68411200      1.79952100     -0.73614700
H           2.56381100      1.74260900      0.38275800
