23
b3lypvdz=-276.188957407789 
C           0.78809900     -0.38484400     -0.07350300
C          -0.03776000      0.87705600      0.21812100
C           2.21024400     -0.35473700      0.51031500
C          -1.44342300      0.90077600     -0.41390100
C          -2.32480700     -0.26798900      0.05214000
C           2.25799100     -0.43836300      2.04104000
C          -2.12649100      2.24858500     -0.13455400
H           0.26766200     -1.27560900      0.32141600
H           0.85133300     -0.52255100     -1.16908200
H           0.52431800      1.75630700     -0.15040900
H          -0.14134000      1.01445800      1.31160900
H           2.78326600     -1.20093500      0.09038500
H           2.72914700      0.56196900      0.17166300
H          -1.32037000      0.80860600     -1.51101900
H          -3.33868300     -0.18927000     -0.37462800
H          -2.42233500     -0.28156300      1.15284600
H          -1.91531700     -1.24141800     -0.26188300
H           1.73118500     -1.33824400      2.40500600
H           3.29843100     -0.49181400      2.40177300
H           1.78815900      0.43643100      2.51998700
H          -3.11037500      2.30888600     -0.62880300
H          -2.28332900      2.39476300      0.94928400
H          -1.51490700      3.09030000     -0.50190300
