11
b3lypvdz=-231.106801152811 
O           6.04037000     -0.45604000     -1.33227100
C           2.27050300      2.16361900      0.39924600
C           4.97830200     -0.35720700     -0.75114200
C           4.27851600      0.91242000     -0.49643300
C           3.08266800      0.94022500      0.11629600
H           1.29383800      2.10653200     -0.11266200
H           2.78171500      3.08105200      0.07151600
H           2.05091300      2.24696200      1.47881300
H           4.44640900     -1.26640100     -0.35987700
H           4.77877400      1.82239200     -0.84548300
H           2.64369300     -0.01545300      0.43579700
