19
b3lypvdz=-310.903864431955 
C          -2.14522100     -0.21228100     -0.08290100
C          -3.43146700     -0.30472900     -0.90701000
C          -5.66662200     -1.56705800     -1.22324000
O          -4.47211800     -1.56746000      0.85218600
C           0.04465700     -1.34807300      0.59654500
C          -1.30114700     -1.49407800     -0.11707700
C          -4.51648700     -1.19295100     -0.30388600
H          -1.54257600      0.63048400     -0.46604700
H          -2.41094100      0.02675700      0.96097100
H          -3.89277500      0.69681100     -1.01667800
H          -3.22168400     -0.64022000     -1.93978500
H          -5.29077500     -2.19885700     -2.04700900
H          -6.43809800     -2.11319900     -0.66397600
H          -6.10440800     -0.66756600     -1.68987100
H           0.64890500     -0.54199400      0.14525300
H           0.63404200     -2.27807600      0.53585800
H          -0.08875600     -1.10250100      1.66439400
H          -1.87826300     -2.31563100      0.34054900
H          -1.12256500     -1.78237700     -1.17087400
