16
b3lypvdz=-271.618268743919 
C          -2.20235300     -0.07244500      0.03148400
C          -3.39698700     -0.30815100     -0.89496100
C          -5.57675000     -1.63783600     -1.30200200
O          -4.52168900     -1.53929500      0.84320600
C          -1.30069700     -1.29998100      0.18503500
C          -4.49414300     -1.20454900     -0.32659200
H          -1.61493300      0.77274400     -0.36773700
H          -2.57661300      0.23667600      1.02135000
H          -3.89481700      0.65156300     -1.13836300
H          -3.07238300     -0.71852100     -1.86942500
H          -5.13748600     -2.23864300     -2.11718400
H          -6.33545000     -2.23082200     -0.77412000
H          -6.05021700     -0.76101800     -1.77641600
H          -0.43748400     -1.08113100      0.83402000
H          -1.85180700     -2.14158500      0.63234300
H          -0.90459200     -1.63280500     -0.79113700
