20
b3lypvdz=-236.902626844171 
C           0.73747600     -0.36828500     -0.04128900
C           0.02804400      0.96053900      0.29279000
C          -1.37405700      1.05584400     -0.33271300
C          -0.07378300     -1.64047800      0.24722100
C           0.86375200      2.19032400     -0.12743900
C           2.30897900      2.23488300      0.38959800
H           1.67562200     -0.42002600      0.53678200
H           1.03352800     -0.36225500     -1.10848300
H          -0.09355800      1.00202200      1.39432700
H          -2.06296500      0.29923000      0.07496700
H          -1.82403100      2.04442000     -0.13584800
H          -1.33142900      0.91923400     -1.42867400
H          -0.94075600     -1.74312600     -0.42487500
H           0.55489500     -2.53651600      0.10865800
H          -0.45076500     -1.65289800      1.28515800
H           0.87490900      2.25074000     -1.23328600
H           0.33499500      3.09663700      0.22021000
H           2.92750400      1.43201100     -0.04246500
H           2.78771300      3.19192100      0.12110700
H           2.34922800      2.13848000      1.48935200
