14
b3lypvdz=-158.335389900086 
C           0.79182800     -0.34713200     -0.07428600
C           0.04043600      0.94502100      0.27330400
C           2.21453000     -0.39638100      0.49898000
C          -1.37117000      1.00932900     -0.32521900
H           0.21469200     -1.21445800      0.29849200
H           0.83575200     -0.45520300     -1.17459100
H           0.62904900      1.81338900     -0.07902200
H          -0.02284000      1.04098500      1.37370900
H           2.20385700     -0.34426000      1.60219100
H           2.73205700     -1.32724100      0.21182500
H           2.82223000      0.44816700      0.13089500
H          -1.98877000      0.16008400      0.01527600
H          -1.89096100      1.93639000     -0.03006200
H          -1.33949100      0.97801000     -1.42869100
