17
b3lypvdz=-197.618500669305 
C           0.79284700     -0.41148300      0.02104900
C           0.03871600      0.89311400      0.31441500
C           2.26258600     -0.35670500      0.44857100
C          -1.37017700      0.99800400     -0.29279400
C          -2.31541700     -0.16670300      0.02100400
H           0.29142800     -1.25276400      0.53240600
H           0.73257900     -0.63807800     -1.06110800
H           0.64043900      1.74231500     -0.06166700
H          -0.01811600      1.03084500      1.41232600
H           2.36203100     -0.15909300      1.53100100
H           2.78891200     -1.30134600      0.23174800
H           2.80115500      0.44821500     -0.08005500
H          -1.82914800      1.93937300      0.05947000
H          -1.28175500      1.09931000     -1.39119300
H          -3.31847200      0.01683000     -0.39832300
H          -2.42983200     -0.32130000      1.10842000
H          -1.95157500     -1.11523400     -0.40857000
