8
b3lypvdz=-79.764197980183 
C           0.76012700     -0.30780400     -0.06349100
C           0.03797200      0.98978700      0.31298900
H           1.75298900     -0.36468900      0.41315900
H           0.18565700     -1.19326300      0.25660800
H           0.90762100     -0.38072500     -1.15449600
H          -0.95488800      1.04667600     -0.16366300
H           0.61244600      1.87524500     -0.00710300
H          -0.10952400      1.06267300      1.40399600
