12
b3lypvdz=-157.114900248913 
C           2.28915800      2.17221600      0.39536600
C           2.26108600     -0.38757600      0.47978000
C           4.19649300      0.84015300     -0.49735900
C           2.99483100      0.87297200      0.09256800
H           1.31273500      2.21807800     -0.12001100
H           2.88312000      3.04268800      0.07678800
H           2.08743300      2.27033200      1.47828200
H           1.28521200     -0.44774800     -0.03499600
H           2.05433600     -0.40848000      1.56607700
H           2.83807300     -1.28955700      0.22353900
H           4.69778200     -0.10625800     -0.72099100
H           4.71864300      1.75857900     -0.78134300
