23
b3lypvdz=-276.188155229318 
C           0.86023400     -0.26441600      0.02913500
C           2.34156300     -0.54652000      0.28556500
C          -2.31436400     -0.13086600      0.16561200
C          -3.50257500      0.00735300     -0.79449500
C          -2.78861100     -0.17691300      1.62392100
C          -0.05133800     -1.45077300      0.38181900
C          -1.47064400     -1.36957100     -0.20414800
H           0.54916600      0.62740000      0.60144200
H           0.72040500      0.00121800     -1.03582900
H           2.52750000     -0.81035100      1.34133500
H           2.69703200     -1.39097000     -0.32921900
H           2.97127600      0.32551500      0.04278800
H          -1.68209900      0.76667100      0.03506100
H          -4.14095000      0.86901000     -0.53618700
H          -4.14038300     -0.89446200     -0.77030200
H          -3.15676400      0.14237300     -1.83331000
H          -3.31660700      0.74956700      1.90657800
H          -3.49462300     -1.01238300      1.77876500
H          -1.95155300     -0.31405600      2.32751800
H           0.41566500     -2.37616600     -0.00310500
H          -0.08511800     -1.57271300      1.48043400
H          -2.03516800     -2.27326800      0.09673900
H          -1.38604400     -1.41768000     -1.30561700
