17
b3lypvdz=-197.618524977586 
C           0.10831100      0.92276300      0.18332100
C          -1.34807700      0.95866600     -0.30252700
C          -2.18675000     -0.24926600      0.15142800
C          -2.69037100     -0.12559300      1.59397400
C           0.85923500      2.22753900     -0.09023500
H           0.62972900      0.08176100     -0.30967200
H           0.14046200      0.70410900      1.26661700
H          -1.82944800      1.88761500      0.05820300
H          -1.35333300      1.02356000     -1.40595300
H          -3.05442900     -0.37359600     -0.51958700
H          -1.58433800     -1.17039600      0.03858500
H          -3.35857700      0.74645400      1.70261000
H          -3.25954700     -1.01713500      1.90616200
H          -1.85993300      0.00582800      2.30774000
H           1.90693700      2.17279800      0.24882700
H           0.86514700      2.46738700     -1.16784700
H           0.38458100      3.07480600      0.43315300
