20
b3lypvdz=-236.902933642206 
C           0.74071400     -0.34533900     -0.01525700
C           0.07501900      0.99823700      0.29961600
C           2.19603600     -0.46331700      0.47734600
C           2.26188800     -0.55671500      2.00889500
C           2.92565400     -1.64446800     -0.19267800
C           4.45081500     -1.59468000     -0.07580800
H           0.14494100     -1.17071000      0.41929200
H           0.72202600     -0.50626500     -1.10890700
H          -0.93371600      1.05730100     -0.14018000
H           0.66399100      1.83504000     -0.11528200
H          -0.02500800      1.17200600      1.38391600
H           2.72315900      0.46083800      0.16042400
H           1.65757700     -1.40997100      2.36712700
H           3.29123600     -0.70897700      2.36946300
H           1.87141200      0.34797900      2.50102400
H           2.54718500     -2.59285300      0.23465600
H           2.65315100     -1.66415200     -1.26300000
H           4.84969800     -0.65983600     -0.50818800
H           4.79259300     -1.64307100      0.97080600
H           4.92542900     -2.42954700     -0.61546600
