20
b3lypvdz=-236.905906627905 
C           0.75205800     -0.37187700     -0.16635600
C          -0.03179200      0.90131500      0.18060300
C           2.17147000     -0.39631000      0.41637900
C          -1.44957500      0.93555100     -0.40430400
C           2.98645400     -1.61474600     -0.03087800
C          -2.18829100      2.24505500     -0.10125000
H           0.19541000     -1.25622600      0.19937100
H           0.80761500     -0.47541500     -1.26735600
H           0.53085900      1.78284900     -0.18293600
H          -0.09096200      1.00592400      1.28110200
H           2.11054700     -0.38037400      1.52080100
H           2.70438200      0.52762300      0.12199000
H          -2.03150700      0.08326400     -0.00656200
H          -1.39660400      0.78884600     -1.49976500
H           3.98513100     -1.62291700      0.43588800
H           2.48049900     -2.55657000      0.24511200
H           3.12647500     -1.61779300     -1.12597400
H          -3.19658300      2.25126300     -0.54679500
H          -2.29885600      2.39649800      0.98682200
H          -1.63913000      3.11314100     -0.50509300
