17
b3lypvdz=-197.620704613402 
C          -2.03817900     -0.05702600     -0.07443500
C          -3.37319600      0.22396600     -0.77097000
C          -0.13713900     -1.72355600      0.32285700
C          -1.51458700     -1.47959200     -0.29720200
C          -3.89453700      1.64123000     -0.52583600
H          -1.28329900      0.67305000     -0.42576300
H          -2.14354400      0.12661200      1.01325200
H          -4.12809300     -0.51195500     -0.43478700
H          -3.25383100      0.05205900     -1.85766200
H           0.61689400     -1.03147400     -0.08927500
H           0.21841100     -2.74968300      0.13181000
H          -0.15403300     -1.57273000      1.41687100
H          -2.24066100     -2.20596800      0.11370200
H          -1.47488000     -1.68238100     -1.38441800
H          -3.15958100      2.40092300     -0.84436700
H          -4.82814900      1.83475200     -1.07850700
H          -4.09699600      1.81207200      0.54573100
