14
b3lypvdz=-270.400446784508 
O           6.09143900     -0.29950500     -1.22783700
C           2.26201000      2.22110800      0.37289800
C           4.47053300     -1.70576400     -0.17066300
C           5.01530600     -0.36977400     -0.65471100
C           4.22117500      0.86691000     -0.44200800
C           3.04005800      0.95408700      0.19179600
H           1.25615600      2.12966900     -0.07413900
H           2.76980600      3.07985100     -0.09136900
H           2.10778900      2.44075700      1.44478800
H           3.53729300     -1.95712100     -0.70107900
H           4.24004000     -1.68390400      0.90755300
H           5.22001200     -2.48306400     -0.37114200
H           4.69208500      1.76063000     -0.86663600
H           2.58939700      0.04822100      0.61624900
