17
b3lypvdz=-197.61972842182 
C           0.76964800     -0.36478600     -0.11954800
C           0.02747700      0.93390600      0.25630000
C           2.16888800     -0.38565300      0.51500800
C          -1.38856900      1.07758100     -0.31915700
C          -0.01375500     -1.63796900      0.23304800
H           0.90318400     -0.35709900     -1.22047400
H           0.63970500      1.78948800     -0.08462000
H          -0.02145900      1.01541700      1.36008200
H           2.10708600     -0.40050700      1.61879200
H           2.73746300     -1.27722800      0.20031100
H           2.75348700      0.50384800      0.22431600
H          -2.08167800      0.33042900      0.10081900
H          -1.80454100      2.07237800     -0.08619400
H          -1.39232000      0.96168900     -1.41776200
H          -0.95646000     -1.70903000     -0.33217600
H           0.57977800     -2.53719900     -0.00634800
H          -0.26023200     -1.67676500      1.31000300
