19
b3lypvdz=-310.889831635772 
C          -2.10725800     -0.07232400     -0.05575800
C          -3.43758500      0.27456800     -0.77656000
O          -5.43715900     -0.43526000      0.38440800
C          -0.18783100     -1.71380300      0.29183100
C          -1.60391700     -1.50848800     -0.24860200
C          -3.85971400      1.72051900     -0.51355600
C          -4.52913700     -0.70226100     -0.37097400
H          -1.34252100      0.63536000     -0.42376800
H          -2.22347300      0.14110300      1.02332200
H          -3.26238000      0.10904400     -1.85803200
H           0.53349000     -1.05092600     -0.21383100
H           0.15263400     -2.75103000      0.14023300
H          -0.13327900     -1.49613100      1.37265300
H          -2.28728700     -2.21990200      0.24728900
H          -1.62820500     -1.76491800     -1.32425500
H          -3.05723900      2.42244500     -0.78938600
H          -4.75940500      1.98462000     -1.09025300
H          -4.10116700      1.86197200      0.55100500
H          -4.44866700     -1.72528600     -0.82356700
