16
b3lypvdz=-271.604481939302 
C          -2.16669300     -0.16649300      0.02345500
C          -3.43088000      0.24502900     -0.77744100
O          -5.49381200     -0.34249300      0.33987000
C          -1.66946100     -1.59249400     -0.22430400
C          -3.78428400      1.71402200     -0.54530600
C          -4.59190900     -0.66352500     -0.40214700
H          -1.36849900      0.55226500     -0.23167500
H          -2.37839400     -0.02023400      1.09841500
H          -3.21081100      0.05707800     -1.84653400
H          -0.75829300     -1.79433100      0.35961000
H          -2.41352700     -2.35133500      0.06517800
H          -1.42615200     -1.75427400     -1.28817900
H          -2.94702600      2.36901500     -0.83203700
H          -4.66725100      2.01014500     -1.13144000
H          -4.02220400      1.88987400      0.51472300
H          -4.57430300     -1.68524700     -0.86369000
