21
b3lypvdz=-274.960560033674 
C           0.78083700     -0.28320600     -0.14238700
C           0.05397600      0.96595100      0.37948200
C           2.22807500     -0.40863100      0.43590800
C          -0.06701500     -1.53456400      0.13051400
C           2.92750100     -1.70887600      0.01769600
C           4.12406000      0.90898300     -0.65991600
C           3.04669100      0.82918800      0.12878400
H           0.88366600     -0.17814000     -1.23955200
H          -0.98091800      0.99487600      0.00191900
H           0.54242300      1.89908200      0.06195500
H           0.00526000      0.96924500      1.48329100
H           2.11175700     -0.43626400      1.53978400
H          -1.09380500     -1.39501400     -0.24485000
H           0.33966000     -2.42970800     -0.36214600
H          -0.13190700     -1.74630800      1.21243700
H           3.96058600     -1.73188700      0.39689100
H           2.40763900     -2.58877000      0.42148500
H           2.96943600     -1.81954000     -1.07944600
H           4.54209800      0.03936300     -1.17239200
H           4.63497200      1.86220500     -0.82083000
H           2.69630600      1.74761400      0.61297300
