10
b3lypvdz=-193.034410354922 
O          -5.75300800     -0.15722500      0.22065100
C          -4.75580900     -0.61377100     -0.28692700
C          -2.28038900     -0.25005900      0.05309800
C          -3.54502200      0.19206700     -0.69957300
H          -4.66344800     -1.71881200     -0.48431100
H          -1.39841200      0.29071900     -0.32218800
H          -2.36848100     -0.04656400      1.13326800
H          -2.09294900     -1.32988100     -0.07617100
H          -3.76390200      1.25877000     -0.53237200
H          -3.39718000      0.02975600     -1.78527400
