20
b3lypvdz=-236.902678082091 
C          -0.01962700      1.10589400      0.30899600
C          -1.39915600      0.96659800     -0.35469400
C          -2.21912300     -0.27219300      0.10070400
C          -2.56401500     -0.28626900      1.60047200
C          -1.54785300     -1.59785900     -0.29839400
C          -2.20342500      2.27069000     -0.21533100
H           0.60724900      0.21227800      0.15330800
H           0.52328400      1.96307300     -0.12372200
H          -0.09756800      1.28392700      1.39597700
H          -1.21873100      0.82329600     -1.43909300
H          -3.17510600     -0.21650700     -0.45346900
H          -3.07467000      0.63625100      1.92144500
H          -3.23874700     -1.12762700      1.83312900
H          -1.66149100     -0.40935500      2.22265900
H          -0.63312300     -1.78690900      0.28835300
H          -2.23143600     -2.44629200     -0.12285000
H          -1.27073300     -1.60662200     -1.36691200
H          -3.18478200      2.18986500     -0.71265300
H          -2.38114800      2.53605800      0.84137400
H          -1.66459800      3.11340300     -0.68020000
