23
b3lypvdz=-276.185817569025 
C           0.73495500     -0.41104100     -0.10217300
C           0.03609300      0.91388300      0.27283000
C           2.17956400     -0.46677500      0.47326600
C          -1.37242400      1.10331600     -0.30958000
C           2.23796400     -0.51093000      2.00999500
C          -0.10954000     -1.64704800      0.25044900
C           2.99884100     -1.62730000     -0.11719500
H           0.84732200     -0.40464900     -1.20510300
H           0.67781400      1.74827400     -0.06719700
H          -0.02608400      1.00412800      1.37307000
H           2.67492700      0.46984100      0.15098300
H          -2.09353100      0.38796300      0.11786500
H          -1.75026700      2.11550200     -0.08684300
H          -1.38000900      0.97620300     -1.40696000
H           1.75230100     -1.41682200      2.41061600
H           3.28543300     -0.52285900      2.35465600
H           1.75258500      0.36156500      2.47500300
H          -1.05252900     -1.65767700     -0.31774500
H           0.41985600     -2.58060100      0.00125300
H          -0.36822400     -1.67964400      1.32301900
H           4.06008900     -1.54117400      0.17193700
H           2.64184900     -2.60548100      0.24757900
H           2.95211500     -1.63717600     -1.22002500
