14
b3lypvdz=-158.335435306023 
C           0.05831800      0.96048000      0.35668600
C          -1.29501900      1.06976000     -0.35761700
C          -2.26204400     -0.07268200     -0.01779900
C          -3.61938700      0.04251600     -0.72367400
H           0.56472300      0.01114200      0.10820800
H           0.73333900      1.78303700      0.06649100
H          -0.06355700      0.99891600      1.45354200
H          -1.76919300      2.03481300     -0.09581000
H          -1.13012000      1.09136400     -1.45128100
H          -2.42082800     -0.09920100      1.07667300
H          -1.79099200     -1.03722800     -0.28687100
H          -4.12309100      0.99064900     -0.46553700
H          -4.29352600     -0.78134500     -0.43510800
H          -3.50422200      0.01157800     -1.82150400
