20
b3lypvdz=-236.902652901482 
C           0.77582700     -0.34341900     -0.10862800
C           0.03812900      0.97013400      0.26454600
C           2.18657200     -0.41913700      0.50127700
C          -1.37374900      1.04147200     -0.34557500
C          -0.02758000     -1.60072800      0.26733000
C           0.83902400      2.22441500     -0.13099200
H           0.89230000     -0.34665500     -1.21213300
H          -0.07417100      0.98428600      1.36748400
H           2.15670000     -0.31133500      1.60147000
H           2.65561800     -1.39192400      0.27463400
H           2.85337600      0.36153300      0.10389700
H          -2.04035900      0.25995100      0.05128800
H          -1.84578300      2.01322600     -0.12090500
H          -1.33893400      0.93120200     -1.44490200
H          -0.96804600     -1.67656800     -0.29916000
H           0.55690800     -2.51150200      0.05178600
H          -0.27846000     -1.61275800      1.34401400
H           1.79131200      2.30062200      0.41618900
H           1.06734200      2.22779600     -1.21228100
H           0.26297700      3.13858800      0.09236200
