14
b3lypvdz=-158.333780271756 
C          -0.04507400     -1.58676800      0.20471500
C          -2.24712700     -0.23545900      0.13495400
C          -1.49634700     -1.50856500     -0.28868000
C          -2.62984000     -0.19090100      1.61934400
H           0.53599000     -0.71128400     -0.13786200
H           0.46341100     -2.48505000     -0.18335800
H           0.02368800     -1.61693700      1.30604600
H          -1.62726300      0.64636800     -0.12112100
H          -3.16568400     -0.14167600     -0.47155200
H          -2.06136900     -2.39120300      0.06946300
H          -1.50197500     -1.57443900     -1.39216200
H          -3.19829000      0.72221400      1.86430100
H          -3.26765100     -1.05222400      1.88909600
H          -1.74547000     -0.21747500      2.27791600
