20
b3lypvdz=-236.90289695733 
C           0.78918700     -0.39058900     -0.07376800
C           0.06678700      0.91219600      0.30339200
C          -1.35603900      0.99046500     -0.28948500
C          -2.29162800     -0.17330200      0.06401200
C           0.85308700      2.17545300     -0.10869000
C           2.30420100      2.25937800      0.38484400
H           1.77912200     -0.45623300      0.40491500
H           0.22062200     -1.27431300      0.25743700
H           0.93361400     -0.47017100     -1.16666900
H          -0.03113500      0.92735100      1.40781000
H          -1.81873200      1.93424700      0.05379800
H          -1.28016900      1.07195700     -1.39106500
H          -3.31406400      0.02574800     -0.29841000
H          -2.34668500     -0.33060500      1.15545100
H          -1.96237300     -1.11943000     -0.39569700
H           0.84340700      2.25583300     -1.21311300
H           0.29977200      3.05728800      0.26407000
H           2.94411500      1.49289600     -0.08118200
H           2.74175100      3.24084800      0.13490000
H           2.36875700      2.13368200      1.48045000
