20
b3lypvdz=-236.904887637175 
C          -0.03224300      1.04547900      0.26349600
C          -1.42125300      0.98409600     -0.40389400
C          -2.18086400     -0.26950900      0.05739800
C           0.83481800      2.25613100     -0.11307900
C          -2.26119400      2.24942900     -0.17090700
C           2.27493400      2.14591000      0.40681000
H           0.51592200      0.12257800     -0.00665800
H          -0.15565000      1.01619000      1.36437100
H          -1.25807500      0.88954800     -1.49562400
H          -3.14072700     -0.37300200     -0.47520400
H          -2.39998600     -0.22564800      1.13951600
H          -1.59284900     -1.18494600     -0.12878100
H           0.85350300      2.36377200     -1.21403100
H           0.37839000      3.18004500      0.28320600
H          -3.26196800      2.14405000     -0.62276600
H          -2.39789800      2.44738300      0.90747700
H          -1.79436600      3.13969800     -0.62191100
H           2.77552400      1.24894000      0.00303300
H           2.87623300      3.02256300      0.11219300
H           2.30024900      2.07579500      1.50865200
