10
b3lypvdz=-193.036717271232 
O          -5.73419800     -0.12394500      0.25931100
C          -3.66306400      1.65852600     -0.57959000
C          -4.77838700     -0.61762400     -0.29484400
C          -3.58031900      0.15271800     -0.79643200
H          -2.75736600      2.16260400     -0.95056300
H          -4.52980600      2.08889500     -1.10477100
H          -3.78363500      1.89459600      0.48893500
H          -4.72487100     -1.72525100     -0.47552200
H          -2.70026900     -0.28901900     -0.28617800
H          -3.43418400     -0.11580200     -1.86074600
