21
b3lypvdz=-274.962623271038 
C           0.72272300     -0.23600200     -0.14194200
C          -0.00904600      1.05200900      0.26234700
C           2.14914900     -0.31889800      0.45859100
C          -0.04932000     -1.51570300      0.24181300
C          -1.48767700     -1.61617800     -0.27539700
C           4.21279900      0.79215600     -0.47627900
C           3.05224700      0.85187100      0.18287100
H           0.82681600     -0.22356000     -1.24428400
H          -1.00651600      1.10643900     -0.20080700
H           0.54379500      1.94567900     -0.06688100
H          -0.14120300      1.12204200      1.35719300
H           2.04757900     -0.44167300      1.55609100
H           2.63496500     -1.23888700      0.08823400
H           0.52797300     -2.38258300     -0.12948600
H          -0.05180000     -1.60908700      1.34524900
H          -2.14297500     -0.84706200      0.16438100
H          -1.92554100     -2.59536300     -0.01982300
H          -1.53735500     -1.50540200     -1.37316200
H           4.59257700     -0.15278500     -0.87929400
H           4.83172400      1.68023600     -0.63205300
H           2.72158600      1.82295200      0.57203900
