19
b3lypvdz=-310.886676212498 
C          -2.25343600     -0.17497100      0.16202600
C          -3.51314800      0.15736900     -0.68463000
C          -2.55960000     -0.13211100      1.66555200
O          -5.64894800     -0.39889500      0.27219700
C          -0.12428000     -1.60831900      0.17840100
C          -1.58713700     -1.49954800     -0.25840700
C          -4.69915500     -0.73387800     -0.40148100
H          -1.53583700      0.63386800     -0.07056400
H          -3.83031000      1.19123000     -0.47849500
H          -3.24472900      0.06061500     -1.75170000
H          -3.00187100      0.83148800      1.96459800
H          -3.28377900     -0.91414800      1.94653000
H          -1.64958100     -0.28941000      2.26347700
H           0.46797100     -0.76818200     -0.22223600
H           0.33524800     -2.53608100     -0.19625000
H          -0.01079200     -1.59747900      1.27408500
H          -2.16405200     -2.35151400      0.14451200
H          -1.63399400     -1.58977200     -1.35827600
H          -4.66317200     -1.75376100     -0.86603900
