8
b3lypvdz=-191.813488409421 
O           6.06326300     -0.37645800     -1.29585200
C           4.99242500     -0.33603400     -0.72851100
C           4.20702400      0.89714300     -0.51802400
C           3.00940900      0.86359900      0.08149200
H           4.51630500     -1.26542700     -0.31455300
H           4.65788600      1.82548700     -0.88377400
H           2.58266100     -0.08144900      0.43486600
H           2.41292700      1.76603900      0.23755500
