23
b3lypvdz=-276.18671726309 
C           0.79757900     -0.29014500     -0.06548200
C           0.04171000      1.01620200      0.26863300
C           2.21311400     -0.46544100      0.50997600
C          -1.35732600      0.94640500     -0.38249700
C           2.26927200     -0.52668900      2.04067100
C           0.82435900      2.27608600     -0.13160400
C          -2.25348800      2.17737100     -0.19328200
H           0.17711900     -1.14045300      0.27672700
H           0.85328700     -0.38303900     -1.16722100
H          -0.11183900      1.05653100      1.36469300
H           2.63079500     -1.40341000      0.10139700
H           2.88026800      0.33587100      0.14421800
H          -1.87748000      0.06200500      0.02857900
H          -1.23934400      0.75119600     -1.46602300
H           1.60386400     -1.31586500      2.43112800
H           3.29119900     -0.74819900      2.39136100
H           1.96030900      0.42644400      2.50243400
H           1.79598100      2.32957900      0.38509600
H           1.01690900      2.30518400     -1.21937800
H           0.27473700      3.19207900      0.13900200
H          -3.26712700      1.97944300     -0.58008800
H          -2.34885800      2.45119200      0.87201000
H          -1.86443900      3.05515100     -0.73405000
