15
b3lypvdz=-196.394307416949 
C           0.79283800     -0.29994300     -0.09339600
C           2.24347400     -0.43454700      0.41075000
C           2.90487900     -1.71656900     -0.10474500
C           4.18864700      0.93790400     -0.52120400
C           3.01767400      0.83011200      0.11372200
H           0.30589100      0.59909000      0.31969700
H           0.18727900     -1.17323500      0.20237900
H           0.76577400     -0.22113200     -1.19476900
H           2.19334700     -0.51086500      1.51751600
H           3.91488100     -1.85106600      0.31468800
H           2.30530200     -2.59639300      0.18213100
H           2.99238500     -1.71149000     -1.20510900
H           4.72998500      0.06881800     -0.90427600
H           4.65534200      1.91437500     -0.67979900
H           2.53430100      1.75054200      0.47111500
