20
b3lypvdz=-236.903728945291 
C           0.85587900     -0.26446100      0.07406500
C           2.28221400     -0.56298500      0.54273000
C          -2.24675700     -0.04046700     -0.10021400
C          -3.67897100     -0.05831400     -0.64108000
C          -0.09305800     -1.46046600      0.24495600
C          -1.47095900     -1.32529700     -0.42545200
H           0.45889100      0.60113300      0.63376400
H           0.87861500      0.04814000     -0.98693100
H           2.30351700     -0.88061400      1.60045100
H           2.73421100     -1.37732300     -0.04853900
H           2.93500000      0.32048900      0.44569900
H          -1.70940400      0.83034000     -0.51578400
H          -2.26868000      0.11157400      0.99564600
H          -4.23057800      0.85642500     -0.36765900
H          -4.24521600     -0.91578600     -0.23873100
H          -3.69689700     -0.14244500     -1.74206900
H           0.39926500     -2.36508200     -0.15742700
H          -0.23074000     -1.65079400      1.32659700
H          -2.08607600     -2.19549900     -0.12828100
H          -1.35535600     -1.40296900     -1.52364200
