17
b3lypvdz=-197.618573100174 
C           0.09641400      0.98880000      0.20313000
C          -1.31310000      0.97484200     -0.40240800
C          -2.20237600     -0.20448200      0.02054200
C           0.83719900      2.30552100     -0.04589200
C          -1.60442300     -1.59796400     -0.20655000
H           0.68759400      0.15058200     -0.20849000
H           0.03155900      0.80565200      1.29309000
H          -1.82960300      1.91197000     -0.11975500
H          -1.22848700      1.00026100     -1.50672900
H          -3.16089000     -0.12743900     -0.52307400
H          -2.45420400     -0.09593600      1.09263600
H           1.84735700      2.29428300      0.39460900
H           0.94266000      2.50992400     -1.12587100
H           0.29195800      3.15678100      0.39768200
H          -0.72698900     -1.77827100      0.43624900
H          -2.34300100     -2.38378500      0.02477100
H          -1.28096800     -1.73894000     -1.25364100
