23
b3lypvdz=-276.188209615416 
C           0.79934200     -0.38409100     -0.02063400
C           0.07838900      0.93976900      0.27462300
C          -1.31139400      1.01638600     -0.39537100
C          -2.29943700     -0.10529500     -0.04045800
C          -3.68166000      0.08726900     -0.68017000
C           0.90984800      2.17561500     -0.13677300
C           2.33709700      2.24889800      0.42499800
H           1.76854700     -0.43991100      0.49946900
H           0.20923600     -1.24853000      0.32285100
H           0.98580100     -0.50813900     -1.10295900
H          -0.07594600      0.99605800      1.37106700
H          -1.77073800      1.98576000     -0.12161200
H          -1.17719100      1.04182300     -1.49479800
H          -2.41017000     -0.16121000      1.05873900
H          -1.89435400     -1.07979600     -0.36422800
H          -4.13778300      1.04273800     -0.36675300
H          -4.37249200     -0.72250100     -0.39062100
H          -3.61580500      0.09223400     -1.78266900
H           0.95675200      2.22183500     -1.24205600
H           0.35710000      3.07891000      0.18151300
H           2.98564900      1.45987900      0.01105000
H           2.80372200      3.21587400      0.17111200
H           2.34678800      2.15212400      1.52538000
