17
b3lypvdz=-197.619890997746 
C          -0.03165400      1.06053400      0.28897100
C          -1.39681800      0.98226300     -0.41135000
C          -2.21087100     -0.26383100     -0.01134900
C          -1.53347600     -1.61215100     -0.27718300
C          -2.21154300      2.25675700     -0.14797000
H           0.61712400      0.20764100      0.03120200
H           0.50622500      1.97851500     -0.00261200
H          -0.14591000      1.07603300      1.38808400
H          -1.21084000      0.91830000     -1.50175700
H          -3.17144700     -0.23211700     -0.55667800
H          -2.47051300     -0.19278200      1.06276900
H          -0.64170900     -1.76010400      0.35294100
H          -2.22408500     -2.44551600     -0.06603800
H          -1.21316600     -1.70228100     -1.33040900
H          -3.17517000      2.23892700     -0.68355700
H          -2.43167500      2.36958500      0.92869800
H          -1.66497200      3.15802800     -0.47236100
