20
b3lypvdz=-236.902670732753 
C          -0.00185700      1.02205600      0.20861200
C          -1.39714200      0.98055600     -0.45037500
C          -2.21105400     -0.25169300     -0.00581300
C           0.82433800      2.28077400     -0.07762000
C          -1.54148600     -1.61450600     -0.21308900
C          -2.21115200      2.25683900     -0.19009800
H           0.57137400      0.14169100     -0.13060200
H          -0.11623500      0.90386900      1.30386700
H          -1.24149200      0.89980300     -1.54545100
H          -3.17160500     -0.23801500     -0.55131100
H          -2.47092900     -0.13585000      1.06455400
H           1.84390300      2.18122500      0.32871800
H           0.91331400      2.47053800     -1.16177600
H           0.37863200      3.17834500      0.37983200
H          -0.66090300     -1.74944300      0.43520200
H          -2.24412300     -2.43165100      0.02052500
H          -1.20782000     -1.74755700     -1.25754400
H          -3.21042600      2.18528400     -0.65056400
H          -2.35450000      2.42469000      0.89241200
H          -1.72383700      3.15184400     -0.60597900
