21
b3lypvdz=-274.964881361666 
C           0.75890000     -0.33432600     -0.10663300
C           2.22337800     -0.39526500      0.40272200
C          -0.08449000     -1.58098400      0.17409100
C           2.93506400     -1.68587100     -0.02042900
C           2.34903800      2.18649500      0.48310300
C           4.13978000      0.88773900     -0.62602200
C           2.97723000      0.88274200      0.04223600
H           0.26304000      0.53331900      0.35808800
H           0.76840400     -0.13532600     -1.19491900
H           2.16912300     -0.40722900      1.51263300
H          -1.13967700     -1.40067200     -0.08946300
H           0.25419400     -2.45142700     -0.40904300
H          -0.04989200     -1.86335100      1.24107200
H           3.96552500     -1.71921400      0.36471100
H           2.41175800     -2.56739400      0.37784400
H           2.97830300     -1.78685800     -1.11861400
H           1.44699800      2.42473700     -0.10620900
H           3.05380900      3.02266800      0.36198900
H           2.02854700      2.14988300      1.53979600
H           4.62379400     -0.02434500     -0.97663500
H           4.65307300      1.82737700     -0.84961900
