15
b3lypvdz=-196.392919242939 
C           0.77620700     -0.30782500     -0.04046500
C          -0.00855900      0.96779100      0.28409400
C           2.22202400     -0.33659300      0.50488300
C           4.19451400      0.83987600     -0.54835500
C           3.05964900      0.86461000      0.15634900
H           0.23970900     -1.18067200      0.37253300
H           0.79969600     -0.45054300     -1.13615200
H          -1.05560000      0.88329300     -0.05020300
H           0.42305100      1.84937400     -0.21731100
H          -0.01863600      1.17635200      1.36877400
H           2.17660900     -0.42397300      1.60872000
H           2.72867400     -1.24640800      0.13889800
H           4.60184800     -0.09719400     -0.94301300
H           4.76286200      1.75126000     -0.75447400
H           2.69775400      1.83025300      0.53252300
