17
b3lypvdz=-197.621545894604 
C          -1.29010400      1.01336200     -0.26876800
C          -2.24428300     -0.15236800      0.05285400
C          -3.55728900      0.02825400     -0.73292300
C          -2.54654400     -0.16600900      1.56268200
C          -1.58534300     -1.48700100     -0.34225600
H          -0.34138800      0.91946400      0.28576200
H          -1.74283600      1.98217400      0.00525000
H          -1.04832700      1.04928600     -1.34507500
H          -4.05551700      0.97552300     -0.46278400
H          -4.26482200     -0.79155800     -0.52204600
H          -3.37439800      0.04183100     -1.82134500
H          -3.00068500      0.78550700      1.88881900
H          -3.24994900     -0.97506400      1.82172300
H          -1.62589200     -0.31988800      2.15139200
H          -0.63979200     -1.64099600      0.20452200
H          -2.24714400     -2.34001700     -0.11389500
H          -1.35728600     -1.51750100     -1.42151200
