23
b3lypvdz=-276.188131512118 
C           0.82717100     -0.33859600     -0.02719900
C           0.07587600      0.97620000      0.27121600
C           2.25141000     -0.42537800      0.54244400
C          -1.31414600      1.02563200     -0.40142900
C          -2.28522500     -0.11185600     -0.05037200
C          -3.67314300      0.07039800     -0.68145800
C           0.88591700      2.22192000     -0.12796800
H           0.24322200     -1.18114700      0.38152200
H           0.86574700     -0.49313000     -1.12321500
H          -0.08291700      1.02487200      1.36757600
H           2.26559900     -0.21814500      1.62754500
H           2.66909400     -1.43513000      0.38969200
H           2.93787300      0.28572500      0.05540300
H          -1.79048600      1.98524000     -0.12382800
H          -1.17972100      1.05918100     -1.50087100
H          -2.39017200     -0.17449200      1.04912400
H          -1.87013900     -1.07979600     -0.38098700
H          -4.13506400      1.02141100     -0.36268900
H          -4.35611500     -0.74531900     -0.38983300
H          -3.61433100      0.07939000     -1.78431000
H           1.81324200      2.31704800      0.45805700
H           1.16187900      2.19387600     -1.19763800
H           0.29712800      3.13999600      0.04171900
