21
b3lypvdz=-274.960857550022 
C           0.83753300     -0.32548000     -0.03103500
C           2.28598900     -0.46885800      0.53494900
C           2.25185000     -0.53535000      2.07881100
C          -0.09023000     -1.53259300      0.12992600
C           2.97376300     -1.73258900     -0.00740000
C           4.07228400      0.92521300     -0.67399700
C           3.02247600      0.80245700      0.14365800
H           0.37465800      0.55372400      0.45225300
H           0.91543900     -0.07376100     -1.10341500
H           1.71559300     -1.42933200      2.43472400
H           3.27322200     -0.56924100      2.49101300
H           1.74489700      0.34616400      2.50542100
H          -1.09153200     -1.29405500     -0.26411800
H           0.27901800     -2.41015600     -0.42416900
H          -0.21366400     -1.83386000      1.18312300
H           4.02230600     -1.78305100      0.32743900
H           2.46789200     -2.63777000      0.36153000
H           2.96807900     -1.76744900     -1.10904000
H           4.54350100      0.06588400     -1.15688600
H           4.50342000      1.90476300     -0.89761900
H           2.59860500      1.71244000      0.59163400
