20
b3lypvdz=-236.902993414107 
C           0.13283100      0.97191000      0.20024800
C          -1.31223000      0.96108200     -0.31762300
C          -2.19529900     -0.24042100      0.08832700
C          -2.63979200     -0.17427700      1.55842100
C           0.84241000      2.29922300     -0.08656600
C          -1.55301700     -1.60211600     -0.21936700
H           0.70078200      0.14511700     -0.26326700
H           0.15127200      0.77976300      1.28921000
H          -1.81827000      1.88441500      0.02426500
H          -1.28581000      1.02777000     -1.42254300
H          -3.11084400     -0.15889500     -0.52798900
H          -3.09667300      0.80095700      1.79968400
H          -3.38772800     -0.95351100      1.78168900
H          -1.79272300     -0.32860100      2.24953900
H           1.88247100      2.29377900      0.27917900
H           0.86660000      2.51685900     -1.16911100
H           0.32300800      3.14021000      0.40473800
H          -0.68941100     -1.79943200      0.43828600
H          -2.27772100     -2.41849600     -0.05782000
H          -1.19665400     -1.66613500     -1.26189900
