21
b3lypvdz=-274.987066970742 
C          -1.32608900      1.12674800     -0.33972500
C          -2.13123800     -0.13811100      0.01396900
C          -3.48603500      0.11669100     -0.68287200
C          -0.11698300     -1.73482900      0.27412200
C          -1.48924100     -1.47892800     -0.35852300
C          -2.35115000      2.27288700     -0.22648700
C          -3.72800000      1.64560000     -0.59610400
H          -0.44990000      1.28242000      0.30926100
H          -0.95071700      1.04244200     -1.37746500
H          -2.30060800     -0.12917700      1.11028300
H          -4.30501800     -0.47472000     -0.24325500
H          -3.40267300     -0.19600600     -1.74005500
H           0.62978200     -0.99401200     -0.05615100
H           0.26693900     -2.73064400     -0.00265800
H          -0.16294300     -1.68896000      1.37653600
H          -2.17980800     -2.29242700     -0.06940200
H          -1.40166400     -1.53469100     -1.46125300
H          -2.37518800      2.64576700      0.81149400
H          -2.08927800      3.13340800     -0.86178400
H          -4.11427200      2.04197400     -1.54836700
H          -4.48341600      1.88867000      0.16803400
