23
b3lypvdz=-276.18784970463 
C           0.81883000     -0.36984400     -0.04593100
C           0.05025000      0.92742000      0.25816200
C          -1.35119700      0.85602400     -0.38738300
C           0.82886600      2.19346200     -0.15789900
C          -2.25914300      2.07878700     -0.18067200
C           2.26086700      2.29061000      0.38986400
C          -3.71357900      1.81428600     -0.59402500
H           1.74666900     -0.44967800      0.54133800
H           0.20150500     -1.25194600      0.19756500
H           1.08683800     -0.43361700     -1.11590300
H          -0.09459000      0.97600900      1.35606600
H          -1.86482600     -0.03488700      0.01982000
H          -1.23786200      0.66975500     -1.47388800
H           0.85801800      2.25516000     -1.26347100
H           0.26898900      3.08115100      0.18409500
H          -2.23610900      2.38223000      0.88290700
H          -1.86931300      2.93526800     -0.75784800
H           2.92145900      1.51857000     -0.03649500
H           2.70516400      3.26983400      0.14350800
H           2.28061200      2.18188900      1.48911200
H          -4.15406700      0.99523500     -0.00045700
H          -3.78140800      1.52585800     -1.65832900
H          -4.34157000      2.70942700     -0.44693600
