14
b3lypvdz=-158.333482720891 
C          -0.07039700     -1.66970300      0.28241700
C          -1.41981200      1.07550300     -0.36488400
C          -2.18571500     -0.18590400      0.05515000
C          -1.49217700     -1.51956400     -0.27519200
H           0.62844400     -0.95251300     -0.17800000
H           0.32297700     -2.68075400      0.08258200
H          -0.04607600     -1.50999700      1.37541800
H          -0.48776500      1.19936100      0.21022100
H          -2.03312000      1.97619300     -0.19170200
H          -1.15407800      1.05138700     -1.43667900
H          -3.17679700     -0.18309700     -0.43278000
H          -2.37967600     -0.13881700      1.14349900
H          -2.11956000     -2.34208400      0.11397700
H          -1.46494800     -1.65091100     -1.37402700
