23
b3lypvdz=-276.186646710099 
C           0.77446800     -0.40995600      0.01533700
C           0.05007900      0.91412600      0.29967900
C           2.22890600     -0.45120900      0.50822300
C          -1.36529300      1.02496500     -0.29595800
C          -2.33984900     -0.11690000      0.04021600
C           2.37388900     -0.42627500      2.03321000
C          -2.62826700     -0.30248900      1.53249800
H           0.22294500     -1.24551200      0.48493600
H           0.75314900     -0.60845600     -1.07298500
H           0.65847600      1.74543600     -0.10503800
H           0.00644800      1.08149100      1.39102600
H           2.71313800     -1.36278200      0.11508500
H           2.78898100      0.39596600      0.06873000
H          -1.81023300      1.98057500      0.04000000
H          -1.28599700      1.09761200     -1.39681500
H          -3.28782800      0.07606200     -0.49311300
H          -1.95123900     -1.06412700     -0.37681300
H           1.79926500     -1.24484000      2.50149800
H           3.42620500     -0.54227700      2.34014700
H           2.00555000      0.51676300      2.47049200
H          -3.02151900      0.62452300      1.98555200
H          -3.37573000     -1.09554500      1.70121500
H          -1.72224400     -0.58525100      2.09398100
