23
b3lypvdz=-276.189848486963 
C           0.80280200     -0.39858000     -0.17270400
C          -0.08188700      0.81195000      0.19064800
C           2.18295100     -0.26848200      0.48886100
C          -1.52889500      0.76908200     -0.31576500
C           0.16124100     -1.75041800      0.17543500
C          -2.26472300      2.10470800     -0.15336200
C          -3.74851900      2.02812400     -0.52168200
H           0.95101800     -0.37824100     -1.27009300
H           0.40701400      1.72044600     -0.20974500
H          -0.09038300      0.93980500      1.29121000
H           2.10240400     -0.32450600      1.58963000
H           2.86311100     -1.07430000      0.16564500
H           2.66139800      0.69380900      0.23833300
H          -2.09110400     -0.01829500      0.21861800
H          -1.54463600      0.47739100     -1.38435900
H          -0.75968600     -1.93002000     -0.40144200
H           0.85516200     -2.57853000     -0.04807500
H          -0.09772300     -1.81224000      1.24798400
H          -2.16056600      2.45627900      0.89043500
H          -1.76588900      2.86872700     -0.77844400
H          -4.28631500      1.31583900      0.12661400
H          -3.88692900      1.68694800     -1.56321200
H          -4.24624700      3.00670500     -0.42152800
