18
b3lypvdz=-235.700557992829 
C          -1.35581500      1.00989800     -0.27174400
C          -2.27198600     -0.17802000      0.09442000
C          -3.55705800      0.14884400     -0.69986300
C          -2.52945600     -0.29968500      1.60378800
C          -2.28892000      2.24233100     -0.28150400
C          -3.70024700      1.69479700     -0.65278000
H          -0.49746900      1.12709100      0.40984000
H          -0.94312800      0.84461800     -1.28282200
H          -1.83247200     -1.12929800     -0.25315600
H          -4.44158800     -0.37759100     -0.30624800
H          -3.42958200     -0.18271600     -1.74456800
H          -2.97123800      0.61956800      2.02620000
H          -3.23138800     -1.12378400      1.81663800
H          -1.59695700     -0.50590200      2.15561500
H          -2.31185500      2.71029900      0.71673800
H          -1.93954500      3.01910600     -0.97977600
H          -4.05086600      2.08650900     -1.62051200
H          -4.44702900      2.00673400      0.09453500
