20
b3lypvdz=-236.904191888734 
C           0.82198200     -0.31107100     -0.10637200
C           0.02562800      0.97335200      0.15402300
C           2.21877900     -0.34503400      0.53156600
C          -1.42231700      0.90311400     -0.34304900
C           2.19922700     -0.55847500      2.04841100
C          -2.19523000      2.20922600     -0.15139400
H           0.24185200     -1.17949400      0.26330300
H           0.91019300     -0.45404000     -1.19930200
H           0.54036600      1.82473100     -0.33243900
H           0.02158100      1.20646700      1.23615200
H           2.80776500     -1.15415900      0.06444000
H           2.75830000      0.59113500      0.29011400
H          -1.94223500      0.08245400      0.18581700
H          -1.43127400      0.61891200     -1.41289000
H           1.65830800     -1.48700100      2.30570900
H           3.21776000     -0.64557700      2.46039800
H           1.69642600      0.26437700      2.58323300
H          -3.22958700      2.12853100     -0.52380200
H          -2.24211200      2.49489300      0.91421400
H          -1.71241200      3.04125900     -0.69273300
