21
b3lypvdz=-274.96267994794 
C           0.81068700     -0.26314900     -0.20361000
C           0.04093300      1.01172800      0.16572000
C           2.23625300     -0.39565900      0.39074000
C          -1.43535500      0.94601700     -0.23554800
C           2.89304600     -1.69642000     -0.08241300
C           4.25856400      0.91171400     -0.46691600
C           3.08052700      0.83887900      0.16124300
H           0.22832800     -1.13994300      0.13680500
H           0.87051100     -0.34685800     -1.30565300
H           0.51132100      1.88587000     -0.31655900
H           0.11733100      1.18807500      1.25546300
H           2.10440000     -0.46872200      1.49045400
H          -1.94620100      0.10246400      0.25839900
H          -1.97363100      1.86645200      0.04474000
H          -1.55085100      0.80859400     -1.32475100
H           3.85581900     -1.87252200      0.42206100
H           2.23673700     -2.55633600      0.12872700
H           3.08029600     -1.68108700     -1.16978500
H           4.74671900      0.03656500     -0.90279100
H           4.78747800      1.86430100     -0.56106900
H           2.66529000      1.76243700      0.58184500
