21
b3lypvdz=-274.962148238429 
C           0.83384500     -0.25026400     -0.10720800
C           0.04762700      1.04298100      0.15626100
C           2.25134600     -0.33945800      0.51815000
C          -1.42068300      0.92697200     -0.26135300
C           2.18716700     -0.58467700      2.03735200
C           4.22663500      0.87260700     -0.50668800
C           3.10449800      0.87058800      0.21877700
H           0.24707500     -1.10799200      0.27181800
H           0.91486900     -0.39746700     -1.19917200
H           0.52140700      1.87827000     -0.38875700
H           0.09756600      1.31156000      1.22718500
H           2.74647300     -1.21326000      0.05748900
H          -1.93248700      0.13068300      0.30491200
H          -1.97112500      1.86542600     -0.08230900
H          -1.51771700      0.67974700     -1.33317500
H           1.55360800     -1.45781600      2.26596100
H           3.19116000     -0.76923700      2.45098900
H           1.76198300      0.28055200      2.57380700
H           4.61234600     -0.04432900     -0.96489100
H           4.80553000      1.78576600     -0.67142600
H           2.76197900      1.81444900      0.66477800
