18
b3lypvdz=-235.682570022377 
C           0.77851400     -0.37832300     -0.04843500
C           2.22216900     -0.34699500      0.48737200
C           2.23936900     -0.55970500      2.01344400
C           2.33350000      2.25335500      0.39181600
C           4.17679600      0.84310700     -0.49561800
C           2.97522800      0.91777900      0.09333100
H           0.14769400      0.38855600      0.43210900
H           0.31301000     -1.35769800      0.15594000
H           0.74780900     -0.21146900     -1.13849500
H           2.76124200     -1.19613800      0.03173800
H           1.77275700     -1.52509100      2.27643100
H           3.26998500     -0.56240600      2.40396000
H           1.67829300      0.22841600      2.54364300
H           1.41218800      2.39502200     -0.19917100
H           3.01518800      3.08337800      0.15083900
H           2.05251200      2.34335500      1.45673300
H           4.64089000     -0.12015200     -0.73000800
H           4.73975600      1.74181000     -0.76582800
