20
b3lypvdz=-236.90496755449 
C           0.82137000     -0.32241700      0.03679000
C           0.05361700      0.98760100      0.26556500
C          -1.31188300      1.01907400     -0.44741900
C          -2.27940000     -0.11187300     -0.07449700
C          -3.68830900      0.07388200     -0.64500600
C           0.90261500      2.20108500     -0.13497400
H           1.79933100     -0.29856200      0.54530600
H           0.27267700     -1.19408000      0.42668500
H           1.00750600     -0.49517300     -1.03883200
H          -0.14554300      1.06882700      1.35298400
H          -1.79535000      1.98716300     -0.21254800
H          -1.15140300      1.02040100     -1.54410100
H          -2.34030400     -0.18317900      1.02825400
H          -1.87147200     -1.07891500     -0.41802600
H          -4.12414900      1.03591600     -0.32288200
H          -4.36923500     -0.72530400     -0.30866700
H          -3.68593100      0.06528600     -1.74936400
H           1.84696800      2.23578000      0.43225600
H           1.16050300      2.17105400     -1.20920100
H           0.36359300      3.14583400      0.05067700
