23
b3lypvdz=-276.184925414175 
C           0.77901400     -0.28617800      0.02899400
C          -0.00936800      1.01030500      0.27871200
C          -1.41850700      0.97028500     -0.37012100
C          -2.27819000     -0.23704400      0.07892900
C          -2.57718000     -0.33418400      1.58176000
C           0.81122500      2.22377200     -0.19220700
C          -2.19125600      2.29064100     -0.18783100
H           1.79123100     -0.21698300      0.46056400
H           0.29279900     -1.16220900      0.48552500
H           0.88732000     -0.48419500     -1.05250800
H          -0.13878300      1.11449500      1.37330700
H          -1.26103800      0.84166500     -1.46032400
H          -3.23492300     -0.19031300     -0.47113700
H          -1.79668400     -1.17315000     -0.25193400
H          -3.06882200      0.57565300      1.96472200
H          -3.25284800     -1.18134600      1.78736900
H          -1.66116400     -0.49617000      2.17387500
H           1.82610200      2.19605200      0.23737700
H           0.91262100      2.23791300     -1.29273900
H           0.35442300      3.17569600      0.11803700
H          -3.21701000      2.19947200     -0.58238000
H          -2.26223900      2.58403600      0.87404900
H          -1.71052300      3.11928700     -0.72923800
