23
b3lypvdz=-276.187947909181 
C           0.77100900     -0.33715300     -0.08675100
C           0.07488500      1.00710900      0.16471800
C           2.22109700     -0.42760800      0.43252800
C          -1.41191500      0.97644400     -0.19444600
C           2.24301900     -0.56123000      1.96291600
C           2.97497000     -1.58239500     -0.25709200
C           4.47422100     -1.65387400      0.04358600
H           0.17717700     -1.14797300      0.37654200
H           0.75561600     -0.54248400     -1.17338400
H           0.58576100      1.79212600     -0.42214400
H           0.18717100      1.30245300      1.22316000
H           2.73905200      0.51259200      0.15468200
H          -1.95346400      0.23619800      0.41778300
H          -1.89314400      1.95468000     -0.03069900
H          -1.56570300      0.69809400     -1.25173200
H           1.64096900     -1.43144700      2.28043000
H           3.26094100     -0.70384600      2.35648700
H           1.82055700      0.32485600      2.46234100
H           2.49446200     -2.54142700      0.01675400
H           2.83814500     -1.47603100     -1.34829800
H           4.97438700     -0.69732000     -0.19082900
H           4.68232800     -1.88407400      1.10087400
H           4.96405800     -2.43309100     -0.56132500
