23
b3lypvdz=-276.187603411719 
C          -0.01101500      1.04085800      0.22081700
C          -1.39806600      0.98722900     -0.45294400
C          -2.21018900     -0.24837000     -0.01329300
C           0.81652300      2.30649300     -0.04691800
C          -1.51560800     -1.60510400     -0.17574200
C          -2.22693500      2.25895400     -0.21967900
C           2.28328500      2.15404400      0.36926400
H           0.57435400      0.16913600     -0.12334000
H          -0.12729200      0.91130600      1.31539300
H          -1.22443700      0.89798500     -1.54457100
H          -3.15238400     -0.25615600     -0.59017000
H          -2.50668100     -0.11904800      1.04595400
H           0.76884400      2.56003300     -1.12290600
H           0.37045200      3.16353000      0.48723100
H          -0.65857900     -1.71899200      0.50730000
H          -2.21607600     -2.42797200      0.04381300
H          -1.14048800     -1.74893500     -1.20453800
H          -3.21317700      2.17648600     -0.70600800
H          -2.40033000      2.43237500      0.85741500
H          -1.73557600      3.15520000     -0.62878100
H           2.77627900      1.34799000     -0.20029700
H           2.85476100      3.08063000      0.19244500
H           2.37553600      1.90182800      1.44065400
