20
b3lypvdz=-236.903540028051 
C           0.82113800     -0.35396100      0.02097100
C           0.07985800      0.96572400      0.26542300
C          -1.33488600      1.03949100     -0.33716100
C          -2.31413500     -0.09624400      0.02542900
C          -3.64570900      0.08998700     -0.71686800
C          -2.54641200     -0.21272000      1.53729500
H           1.85539900     -0.30137000      0.39891300
H           0.33274500     -1.19999600      0.53193400
H           0.86804200     -0.60100400     -1.05424700
H           0.67156400      1.79526200     -0.16178200
H           0.03978200      1.16056200      1.35252600
H          -1.79424400      2.00177300     -0.03792500
H          -1.24683100      1.07593700     -1.43944300
H          -1.87090500     -1.04807400     -0.32526700
H          -4.14485900      1.02232700     -0.39615100
H          -4.34023400     -0.74240100     -0.51461900
H          -3.49924400      0.14714500     -1.80869400
H          -2.95154200      0.72981500      1.94847100
H          -3.27379300     -1.00917900      1.76758200
H          -1.61853700     -0.44447600      2.08401400
