19
b3lypvdz=-310.887016883502 
C           0.66740500     -0.33743500      0.03869600
C           2.15746100     -0.41544600      0.41234800
O           6.24953000     -0.67582900     -1.36888600
C          -0.12795100     -1.62429500      0.27789700
C           2.93739700     -1.53682000     -0.28759800
C           4.45384000     -1.53053900     -0.00406400
C           5.22275200     -0.47152000     -0.76196800
H           0.20970900      0.48103800      0.62208000
H           0.57331000     -0.04067000     -1.02261500
H           2.25539200     -0.54701500      1.50771700
H           2.62144200      0.56028800      0.18113300
H          -1.20206000     -1.46372000      0.08633900
H           0.20060400     -2.44383700     -0.38160200
H          -0.02284400     -1.97602700      1.32019200
H           2.53954300     -2.51239400      0.03715000
H           2.76669900     -1.48827300     -1.38003000
H           4.62058700     -1.34458100      1.07647300
H           4.91863500     -2.49924300     -0.24711900
H           4.77464900      0.55861800     -0.73324400
