20
b3lypvdz=-236.902859867168 
C          -2.14592900     -0.14475600      0.15305000
C          -3.31907700      0.22332900     -0.77491400
C          -2.54672900     -0.11950400      1.63572600
C          -0.08262800     -1.68900000      0.17692300
C          -1.54773800     -1.51672800     -0.22997600
C          -3.86917800      1.64010200     -0.59211300
H          -1.35593100      0.61614300     -0.00892300
H          -4.13374200     -0.51447800     -0.64073400
H          -2.97342800      0.10870600     -1.81876300
H          -2.85808500      0.88166300      1.97355800
H          -3.39380600     -0.80616900      1.81421200
H          -1.71903800     -0.44505500      2.28631200
H           0.55754600     -0.95211200     -0.33714600
H           0.29526700     -2.68928100     -0.09191500
H           0.06861500     -1.55448000      1.26124500
H          -2.16309300     -2.31652200      0.22260300
H          -1.63108900     -1.65689100     -1.32295600
H          -3.07866300      2.39658400     -0.74073500
H          -4.66849600      1.85386300     -1.31976600
H          -4.29307700      1.79988700      0.41251100
