19
b3lypvdz=-310.888564443996 
C           0.67231000     -0.34883300     -0.01309700
C          -0.04271900      0.91461500      0.47437300
C           2.19184800     -0.29647600      0.19210800
O           6.28779400     -0.64263400     -1.21477800
C           2.92454900     -1.52231300     -0.37494900
C           4.42495900     -1.60780700     -0.02274300
C           5.27072900     -0.48302200     -0.57881400
H           0.26362600     -1.23420100      0.50907700
H           0.45541400     -0.50673400     -1.08634000
H          -1.12661900      0.87259100      0.27433200
H           0.35326600      1.81395700     -0.02816100
H           0.09111200      1.05915400      1.56132500
H           2.41374200     -0.19916000      1.27285700
H           2.57909100      0.62554100     -0.27943600
H           2.43514300     -2.43956300     -0.00113400
H           2.80688500     -1.54623300     -1.47456800
H           4.53663100     -1.57226300      1.08062300
H           4.86699400     -2.55429300     -0.37227400
H           4.90424600      0.55287500     -0.34400300
