23
b3lypvdz=-276.186981123632 
C           0.75550100     -0.42796200     -0.07646500
C           2.21244100     -0.50303600      0.43173200
C           2.28212400     -0.46033400      1.96682000
C          -0.11835500     -1.67175400      0.14324400
C           2.98436000     -1.70507700     -0.15064900
C          -1.58748100     -1.42586400     -0.21416200
C           4.50610900     -1.60996400     -0.00616200
H           0.26790600      0.43542700      0.41341700
H           0.76608800     -0.19334800     -1.15807500
H           2.71335400      0.41117200      0.05603500
H           1.87773000     -1.38265300      2.41983400
H           3.31556600     -0.34375800      2.32909300
H           1.69720000      0.38338900      2.36942500
H           0.27261400     -2.51056000     -0.45980500
H          -0.05539100     -2.00063000      1.19677000
H           2.62760700     -2.63331400      0.33382000
H           2.73226700     -1.80768900     -1.22215200
H          -2.02014500     -0.62778400      0.41316000
H          -2.20031500     -2.33097500     -0.06806200
H          -1.69984600     -1.10964400     -1.26667500
H           4.90159800     -0.71589700     -0.51936500
H           4.81772200     -1.54717400      1.04958100
H           5.00974500     -2.48637000     -0.44565900
