20
b3lypvdz=-236.906108387563 
C           0.03229500      1.04540400      0.24147300
C          -1.35741700      1.09978300     -0.41034400
C          -2.27079900     -0.06955800     -0.01491900
C          -3.65586800     -0.01927100     -0.67372700
C           0.93498000      2.23193100     -0.12741900
C           2.34456200      2.14010200      0.47306700
H           0.53371400      0.10323700     -0.05374300
H          -0.08171300      1.00430700      1.34160700
H          -1.85102100      2.05270100     -0.13652400
H          -1.24167400      1.11478400     -1.51092100
H          -2.39013900     -0.07738900      1.08460300
H          -1.77546000     -1.02269300     -0.28041600
H          -4.18252400      0.91913800     -0.42568600
H          -4.29110600     -0.85548700     -0.33650600
H          -3.57882800     -0.08006200     -1.77364400
H           1.01176800      2.29898700     -1.22881900
H           0.45520800      3.17072300      0.20741300
H           2.85739700      1.21940900      0.14465700
H           2.96917300      2.99577300      0.16575000
H           2.31105300      2.12948200      1.57689600
