17
b3lypvdz=-309.677293056156 
C           2.27788700     -0.38917400      0.56405300
C           2.19910500     -0.54702300      2.09333500
O           6.11547200     -0.25371800     -1.39233600
C           2.31249500      2.16154400      0.36717600
C           5.04200800     -0.33015800     -0.82240900
C           4.22906600      0.84725200     -0.48987600
C           3.01819400      0.85358000      0.11588700
H           1.25046500     -0.33365500      0.15955200
H           2.72790800     -1.29155100      0.12826700
H           1.64218400     -1.46093500      2.35563300
H           3.20427200     -0.62069600      2.53909900
H           1.67959100      0.29912500      2.57069700
H           1.31887800      2.16352400     -0.11458400
H           2.88659500      3.01510400     -0.02014700
H           2.14136100      2.32168800      1.44647700
H           4.63173600     -1.32774600     -0.52447000
H           4.69018400      1.79194100     -0.79805500
