20
b3lypvdz=-236.904684588909 
C           0.75191900     -0.37563500     -0.12541700
C          -0.07511700      0.88079900      0.21487900
C           2.12733800     -0.30858300      0.55629200
C          -1.49806600      0.93395600     -0.35749600
C           0.03652100     -1.69213500      0.21534600
C          -2.14766000      2.31256400     -0.19240200
H           0.91884000     -0.36816300     -1.22080500
H           0.48411300      1.76143800     -0.15542100
H          -0.12573800      0.99913900      1.31593100
H           2.02904700     -0.34017900      1.65673000
H           2.76767100     -1.15503900      0.25557300
H           2.65977300      0.62247400      0.29626700
H          -2.12911200      0.17124200      0.13277200
H          -1.47727000      0.66817300     -1.43167200
H          -0.88220200     -1.82581400     -0.37764000
H           0.69186900     -2.55460000      0.00352300
H          -0.24272000     -1.73970300      1.28361900
H          -3.17051300      2.32979500     -0.60331600
H          -2.20528100      2.60446500      0.87088700
H          -1.56641200      3.09010500     -0.71754900
