14
b3lypvdz=-158.333811696296 
C           0.76818500     -0.33454200     -0.02803700
C           2.20099800     -0.44505700      0.51472100
C          -0.08671800     -1.58789600      0.19013500
C           2.29186000     -0.47958800      2.04454000
H           0.27430400      0.53661400      0.44348300
H           0.80669200     -0.11151000     -1.10988400
H           2.67931500     -1.34993300      0.09193800
H           2.79537500      0.40760100      0.13874800
H          -1.08746900     -1.47196700     -0.25774000
H           0.38334500     -2.47233900     -0.27634700
H          -0.22727300     -1.81540000      1.26066600
H           1.79754800     -1.36687900      2.47477900
H           3.34036500     -0.49134700      2.38515800
H           1.80747200      0.40704200      2.49173900
