16
b3lypvdz=-271.603017838176 
C          -2.20807100     -0.10206700      0.03187400
C          -3.53797500      0.19485400     -0.69495700
O          -5.51915600     -0.48935400      0.48472000
C          -0.17442000     -1.62349300      0.26757700
C          -1.59210400     -1.47026600     -0.28645100
C          -4.65285100     -0.75397700     -0.31812600
H          -1.49338500      0.69340400     -0.24366300
H          -2.36841100     -0.00437000      1.12141700
H          -3.87611200      1.21161800     -0.44085900
H          -3.36928200      0.12548200     -1.78554100
H           0.49786100     -0.85041700     -0.14133000
H           0.25513500     -2.60405200      0.00650900
H          -0.15502600     -1.52917300      1.36684700
H          -2.23363800     -2.27602800      0.11334400
H          -1.57491200     -1.61316900     -1.38328500
H          -4.64305300     -1.74759200     -0.84147600
