20
b3lypvdz=-236.903876114818 
C           0.74206400     -0.39647400     -0.17432200
C           2.21424400     -0.46170300      0.26429300
C          -0.09716100     -1.64441800      0.13250700
C           2.99940500     -1.68646600     -0.22480000
C          -1.59084400     -1.42726200     -0.11979100
C           4.49464600     -1.59066400      0.08866900
H           0.27199200      0.47562800      0.31638400
H           0.68913900     -0.19227000     -1.26147100
H           2.26763100     -0.42409700      1.36979600
H           2.72600100      0.45235200     -0.09036100
H           0.26027300     -2.48978300     -0.48184100
H           0.05893000     -1.94972600      1.18463800
H           2.58703500     -2.59989400      0.23930900
H           2.85398400     -1.81005400     -1.31488300
H          -1.99441700     -0.63119600      0.52877600
H          -2.17694700     -2.34072100      0.07440900
H          -1.78102200     -1.12277300     -1.16425000
H           4.95542200     -0.72518000     -0.41743700
H           4.66916400     -1.46606100      1.17184900
H           5.04225900     -2.49063800     -0.23617500
