20
b3lypvdz=-236.902062244545 
C           0.78715900     -0.35154900     -0.11014900
C           0.06258600      0.95773200      0.26538000
C           2.20466600     -0.49144300      0.48852000
C           2.29742800     -0.45649100      2.01920100
C          -0.09094600     -1.56711800      0.22426800
C           0.82540600      2.25338600     -0.03859100
H           0.91626600     -0.33923800     -1.21067600
H          -0.89919200      0.97192000     -0.27829000
H          -0.20452000      0.93825100      1.33893800
H           2.63433800     -1.44196800      0.12221000
H           2.85377100      0.30037600      0.07333600
H           1.70415100     -1.25529800      2.49291800
H           3.34193900     -0.58727400      2.34732600
H           1.94301500      0.50316900      2.43248600
H          -1.04863900     -1.52782100     -0.32045300
H           0.41215600     -2.50958800     -0.05262300
H          -0.32757400     -1.61856000      1.30126100
H           1.71700900      2.36954700      0.59841500
H           1.16348900      2.28938300     -1.08945800
H           0.18299200      3.13308400      0.13588100
