20
b3lypvdz=-236.906087867968 
C           0.76869100     -0.32166800     -0.20707500
C           0.05504500      0.95937200      0.23880100
C           2.25083000     -0.36443700      0.17689300
C          -1.42537500      0.99670100     -0.14726800
C           2.96824400     -1.64296100     -0.26929800
C           4.44102000     -1.68669200      0.14515500
H           0.25171900     -1.19703800      0.23138200
H           0.66856300     -0.43800300     -1.30427100
H           0.57545100      1.83506200     -0.19241900
H           0.15593900      1.06437200      1.33588200
H           2.34558300     -0.25489600      1.27540700
H           2.76870100      0.51394500     -0.25422800
H          -1.96753000      0.12513200      0.25836200
H          -1.92512700      1.90021700      0.23849000
H          -1.55649900      0.98235000     -1.24340900
H           2.44002700     -2.52187900      0.14595300
H           2.88551500     -1.73783700     -1.36873800
H           4.99728100     -0.82223000     -0.25668400
H           4.54928700     -1.66291500      1.24376800
H           4.94303700     -2.59719500     -0.22100400
