14
b3lypvdz=-158.335269472704 
C          -1.46918300      0.99390400     -0.39284200
C          -2.25553200     -0.26347300     -0.00689500
C          -1.48585300     -1.56440500     -0.24362800
C          -2.24612000      2.29171300     -0.16178800
H          -0.52492500      1.02236400      0.18169100
H          -1.17183100      0.92493600     -1.45636300
H          -3.20341300     -0.28570300     -0.57552200
H          -2.54458300     -0.19618600      1.05908100
H          -0.53741100     -1.57868900      0.32010500
H          -2.07136600     -2.44325800      0.07295700
H          -1.23525200     -1.69543800     -1.31083100
H          -3.18156500      2.31118000     -0.74672600
H          -2.52400000      2.40935600      0.90026800
H          -1.65456500      3.17530000     -0.45300700
