19
b3lypvdz=-310.901933239766 
C          -2.07915300     -0.12533600      0.07186900
C          -3.36433600      0.03652900     -0.75835300
C          -5.29357500     -1.66604300     -1.20855600
O          -4.73708200     -0.88019600      0.98235500
C          -1.45633700     -1.52305400     -0.00770400
C          -3.86708800      1.49403800     -0.74414700
C          -4.48954600     -0.85704100     -0.20844700
H          -1.34582400      0.62543500     -0.27207000
H          -2.32084900      0.11546800      1.12110100
H          -3.15726100     -0.25325400     -1.80464700
H          -4.62571100     -2.30145200     -1.81580400
H          -6.03892500     -2.28321200     -0.68845200
H          -5.80643400     -0.98463800     -1.91175100
H          -0.53989700     -1.58441100      0.60045800
H          -2.14932000     -2.29287900      0.37109600
H          -1.18635400     -1.78874800     -1.04477100
H          -3.08451200      2.17800900     -1.11045400
H          -4.75303700      1.62479100     -1.38689500
H          -4.14196000      1.79449300      0.27987100
