14
b3lypvdz=-158.333742723438 
C           0.75683400     -0.32797200     -0.04425700
C           2.21362600     -0.45184300      0.43665500
C          -0.12433700     -1.54607800      0.26031300
C           2.97828100     -1.64976300     -0.14031400
H           0.30681100      0.56547100      0.42526500
H           0.74858400     -0.13942400     -1.13487700
H           2.22717300     -0.51303300      1.54199100
H           2.75143700      0.47800200      0.17414200
H          -1.17156600     -1.35569200     -0.02962800
H           0.21017400     -2.44025300     -0.29086700
H          -0.11240300     -1.79150900      1.33727000
H           4.03152700     -1.63695000      0.18691400
H           2.54585000     -2.60816900      0.19186900
H           2.96860900     -1.63838700     -1.24487600
