23
b3lypvdz=-276.188073922055 
C           0.72007800     -0.32115500     -0.19411500
C           0.10853300      0.97023800      0.37197400
C           2.18890100     -0.44038900      0.26517000
C          -0.10556200     -1.57579500      0.15904200
C           2.95299600     -1.68357900     -0.21157000
C          -1.58656900     -1.51416900     -0.23151200
C           4.45756400     -1.59642200      0.06017400
H           0.72406000     -0.23337900     -1.29970900
H          -0.87875900      1.18923800     -0.06396500
H           0.76123700      1.83442000      0.16162000
H          -0.01583600      0.90921800      1.46829000
H           2.22201400     -0.39650000      1.37240700
H           2.72979300      0.45973000     -0.08381900
H           0.35147200     -2.44605400     -0.34201800
H          -0.01809200     -1.77234100      1.24547900
H           2.54788500     -2.58482500      0.28071300
H           2.78011500     -1.82807100     -1.29507000
H          -2.13822400     -0.74960700      0.33804300
H          -2.08502200     -2.47998900     -0.04465600
H          -1.71083400     -1.27938600     -1.30392800
H           4.91082100     -0.73954000     -0.46710300
H           4.66461600     -1.46430900      1.13663600
H           4.98791100     -2.50393400     -0.27248100
