17
b3lypvdz=-197.620646055922 
C           0.77632800     -0.33273400     -0.14093100
C           0.03386700      0.94557900      0.27251000
C           2.20365000     -0.42586900      0.41653100
C          -1.39237400      1.03084000     -0.28781800
C           2.96588600     -1.66072600     -0.07813700
H           0.19836300     -1.21422300      0.19870700
H           0.81065100     -0.39368200     -1.24635800
H           0.61410800      1.82706100     -0.06002700
H          -0.00429700      0.99988700      1.37695300
H           2.16036600     -0.44097400      1.52200300
H           2.76633100      0.48623500      0.14088400
H          -2.00092600      0.16828200      0.03570000
H          -1.90481600      1.94495900      0.05622800
H          -1.38877100      1.04158000     -1.39217800
H           3.97052900     -1.71972600      0.37231700
H           2.42918600     -2.59063600      0.17983200
H           3.08971800     -1.63825200     -1.17501500
