20
b3lypvdz=-236.903675219915 
C           0.08069300      0.98144200      0.18879600
C          -1.33063200      0.97974400     -0.41154200
C          -2.22097300     -0.20095800      0.01025700
C           0.84986800      2.28566200     -0.05319900
C          -1.60129900     -1.59171900     -0.17505200
C           2.31012800      2.22016200      0.40399600
H           0.66128400      0.13951200     -0.23239100
H           0.02413100      0.79294600      1.27915000
H          -1.84583800      1.91752800     -0.12983200
H          -1.24592700      1.00283900     -1.51557000
H          -3.16490300     -0.14414800     -0.56055300
H          -2.50299800     -0.07734800      1.07292800
H           0.81232500      2.53732300     -1.13022700
H           0.33127000      3.11234800      0.46742500
H          -0.74640700     -1.75265900      0.50214800
H          -2.33967200     -2.38160600      0.04231100
H          -1.23806500     -1.74549600     -1.20709100
H           2.85978000      1.42925800     -0.13416500
H           2.83865600      3.17073000      0.22105600
H           2.38648100      1.99584100      1.48295400
