14
b3lypvdz=-158.333565835423 
C           0.04753500      1.04939200      0.30997300
C          -1.35619300      1.01464300     -0.30774900
C          -2.19869800     -0.22300000      0.04433100
C          -1.55951600     -1.57657900     -0.29251700
H           0.68132300      0.22637600     -0.06191900
H           0.56727700      1.99107200      0.06515500
H           0.00909300      0.96519300      1.41123200
H          -1.91653900      1.91272100      0.01185200
H          -1.26836600      1.09085000     -1.40905400
H          -3.16790500     -0.14082000     -0.48006300
H          -2.43700400     -0.20142900      1.12520200
H          -0.66324800     -1.77355000      0.31907900
H          -2.26749300     -2.40200300     -0.10651800
H          -1.25386700     -1.63126500     -1.35320300
