7
b3lypvdz=-153.749795994283 
O           6.06588000     -0.29622500     -1.33549500
C           5.02480900     -0.36615400     -0.72779600
C           4.46759900     -1.62682500     -0.11483600
H           4.37921900      0.54567600     -0.59622800
H           3.47307700     -1.84149400     -0.54446000
H           4.32190300     -1.47982700      0.97064800
H           5.14651300     -2.47295200     -0.29443200
