15
b3lypvdz=-196.398125441673 
C           2.27608600     -0.41192100      0.48888600
C           0.82866500      2.25441100     -0.12401200
C           2.28024200      2.17185900      0.38086700
C           4.19036100      0.83575700     -0.49451300
C           2.98377300      0.86121700      0.08740200
H           1.36964500     -0.57548600     -0.11937800
H           1.95265800     -0.37471200      1.54567300
H           2.92832400     -1.28958000      0.36058500
H           0.17613800      1.52024000      0.37611500
H           0.77146900      2.07254200     -1.21139800
H           0.40611200      3.25367100      0.07482700
H           2.86543600      2.99939900     -0.05344700
H           2.28110000      2.33365200      1.47797000
H           4.71413100     -0.10563300     -0.68698100
H           4.70015900      1.75648500     -0.79369600
