18
b3lypvdz=-235.679460763998 
C           0.74787200     -0.27768200     -0.11858900
C          -0.02975600      0.97984700      0.29657700
C           2.17686500     -0.32041900      0.47339200
C          -0.00927600     -1.55558100      0.26851500
C           4.19978000      0.80168200     -0.52746100
C           3.04937700      0.86107600      0.14925700
H           0.84630900     -0.26195200     -1.22090600
H          -1.05992300      0.94977400     -0.09655100
H           0.43932200      1.89794800     -0.09221600
H          -0.09297900      1.07368500      1.39620100
H           2.08999900     -0.41579600      1.57575900
H           2.67706500     -1.23931500      0.11941100
H          -1.01018000     -1.58417600     -0.19295600
H           0.53651400     -2.45716500     -0.05879700
H          -0.14058500     -1.62468700      1.36362700
H           4.59143500     -0.14990200     -0.90382200
H           4.79534500      1.69697100     -0.72820200
H           2.69891200      1.83889200      0.50456400
