23
b3lypvdz=-276.188578896234 
C           0.94930900     -0.34669700      0.10105500
C           2.36394100     -0.71531300      0.55112000
C          -2.09546800      0.08432800     -0.14616400
C          -3.51660500      0.17132600     -0.71298100
C          -0.06744800     -1.48048900      0.30357900
C          -1.43229300     -1.27988600     -0.37696500
C          -4.12918400      1.56724900     -0.59828600
H           0.60629600      0.54827900      0.65053800
H           0.97270800     -0.04855000     -0.96428500
H           2.38685700     -1.02726900      1.61057500
H           2.76455900     -1.55520400     -0.04157700
H           3.06076100      0.13199800      0.43818700
H          -1.47615900      0.87853000     -0.60156000
H          -2.12280600      0.31196800      0.93797900
H          -4.16094500     -0.56275000     -0.19443100
H          -3.50604100     -0.14404700     -1.77369000
H           0.36904800     -2.42407500     -0.07333900
H          -0.21309800     -1.63304800      1.38985500
H          -2.11398900     -2.07763100     -0.02692100
H          -1.32804700     -1.43627900     -1.46791900
H          -3.52099600      2.31450200     -1.13709600
H          -5.14502200      1.60241600     -1.02421800
H          -4.19407500      1.89534100      0.45354400
