14
b3lypvdz=-158.333367926535 
C           0.72599900     -0.30233400     -0.05854400
C           0.06951900      1.02798500      0.33398000
C          -0.10438200     -1.56142200      0.24965800
C          -1.52954000     -1.55754700     -0.31848800
H           1.69626000     -0.39273300      0.46201800
H           0.96036800     -0.27761500     -1.13960400
H          -0.82363000      1.23918100     -0.27612300
H           0.77247200      1.86521900      0.18544100
H          -0.23875300      1.03163500      1.39472800
H           0.43823300     -2.43943200     -0.14540100
H          -0.15460200     -1.70176000      1.34637400
H          -2.15325300     -0.77716900      0.14693200
H          -2.02719900     -2.52471300     -0.13391800
H          -1.52979200     -1.38329700     -1.40945200
