13
b3lypvdz=-232.317595993159 
C          -2.23021500     -0.15853400      0.06676800
C          -3.51992600      0.19198600     -0.70932600
O          -5.53333500     -0.39907100      0.46606700
C          -1.63414100     -1.52767100     -0.27307400
C          -4.68469500     -0.70123900     -0.34234300
H          -1.48641400      0.62907600     -0.14362500
H          -2.44820000     -0.09587300      1.14817300
H          -3.81907200      1.22574600     -0.47415600
H          -3.32581700      0.10430300     -1.79439600
H          -0.71536600     -1.71036700      0.30602300
H          -2.33128500     -2.35194800     -0.04943000
H          -1.37165900     -1.59469200     -1.34322800
H          -4.72557500     -1.69301500     -0.86765100
