16
b3lypvdz=-271.615821651392 
C          -1.26048100      0.93511300     -0.33152700
C          -2.38944300     -0.03814400      0.00610800
C          -3.66052900      0.20188900     -0.83408400
C          -4.99209400     -2.03431000     -0.94063600
O          -5.56205500     -0.24181500      0.53843500
C          -4.82309600     -0.65170900     -0.33575000
H          -0.37435100      0.74602300      0.29529200
H          -1.57604100      1.97916800     -0.16240200
H          -0.94824600      0.84836700     -1.38651900
H          -2.65825200      0.06233800      1.07221700
H          -2.03959600     -1.07663200     -0.13802600
H          -3.96740500      1.25489000     -0.72261000
H          -3.44499300      0.00264200     -1.89874200
H          -4.04883600     -2.60399100     -0.86474900
H          -5.79360700     -2.57433200     -0.42038600
H          -5.22647400     -1.96099800     -2.01712100
