14
b3lypvdz=-158.333867237634 
C           0.06736800      0.99426300      0.27068200
C          -1.35504100      0.98677400     -0.30350700
C          -2.22069700     -0.20932900      0.12280500
C          -2.62224400     -0.21815400      1.60280900
H           0.59728100      0.05431600      0.03125300
H           0.66226100      1.82097200     -0.15167900
H           0.07547600      1.11014000      1.36806300
H          -1.87469400      1.92258000     -0.01977200
H          -1.29199400      0.99724200     -1.40697500
H          -3.13838700     -0.21469600     -0.49223800
H          -1.68584700     -1.14707000     -0.12501100
H          -3.13940400      0.71861100      1.87886900
H          -3.31161700     -1.04935300      1.82618100
H          -1.75145900     -0.32529500      2.27051800
