11
b3lypvdz=-119.049824712996 
C          -3.62667500      1.63387100     -0.60323400
C          -3.57132300      0.10906300     -0.74839200
C          -2.27494800      2.24538800     -0.21541200
H          -3.97165800      2.07968200     -1.55391800
H          -4.38377400      1.90437600      0.15540600
H          -3.26904300     -0.37087900      0.19923200
H          -4.55151600     -0.30502700     -1.03934900
H          -2.84025900     -0.19127100     -1.51837200
H          -1.50482500      2.01979900     -0.97311900
H          -1.92022300      1.84297600      0.74949600
H          -2.34005500      3.34242200     -0.11933900
