16
b3lypvdz=-271.605640391373 
C          -2.33214400     -0.35679600      0.10219600
C          -3.52245300      0.21138600     -0.71751300
C          -2.46324200     -0.19981700      1.62005000
O          -5.77845200     -0.11542500      0.10603900
C          -3.73191900      1.71845600     -0.56527600
C          -4.77396200     -0.57762400     -0.38372800
H          -1.41102600      0.13782700     -0.25133200
H          -2.21512100     -1.42749800     -0.14765700
H          -3.29947300     -0.02753900     -1.77748600
H          -2.53550700      0.85846900      1.91951100
H          -3.35840700     -0.71322600      2.00978500
H          -1.58927800     -0.63111100      2.13435400
H          -2.80534100      2.26939300     -0.79571300
H          -4.51878500      2.07501000     -1.24758600
H          -4.05196700      1.98174500      0.45397400
H          -4.70192400     -1.67664800     -0.61451800
