20
b3lypvdz=-236.904580729881 
C           0.84360400     -0.27172100     -0.21435100
C           0.05898600      0.96681600      0.26254800
C           2.28993500     -0.38481300      0.28691500
C          -1.35064900      0.98048300     -0.34348300
C           0.77575600      2.29640500     -0.01295000
C           2.89687000     -1.76435500      0.01865200
H           0.28726300     -1.16937900      0.11626000
H           0.83955100     -0.30980800     -1.32187500
H          -0.04819500      0.87378800      1.36137400
H           2.32507100     -0.17739900      1.37332400
H           2.91461400      0.39239400     -0.18753800
H          -1.87944600      0.02896300     -0.16349300
H          -1.96345900      1.79054100      0.08452000
H          -1.31042800      1.13837400     -1.43664800
H           1.73283300      2.36942000      0.52623800
H           0.98426100      2.42860000     -1.08996100
H           0.15093200      3.14585900      0.31111700
H           3.93546600     -1.83013300      0.38238000
H           2.31845100     -2.55596800      0.52431400
H           2.90138300     -1.99946700     -1.05994300
