17
b3lypvdz=-197.61845598541 
C           0.76791300     -0.38052200     -0.01117100
C           0.10304000      0.95175700      0.36050600
C          -0.15066800     -1.58847000      0.18990800
C           0.85820000      2.21273400     -0.09007600
C           2.32305600      2.28973400      0.35625500
H           1.68692600     -0.51592000      0.58660700
H           1.09863200     -0.34465800     -1.06685000
H          -0.90887600      0.97821300     -0.08551700
H          -0.04923000      0.98158300      1.45701800
H          -1.04877100     -1.51995700     -0.44790400
H           0.36187400     -2.53251000     -0.05977800
H          -0.50002300     -1.66374600      1.23468700
H           0.81165300      2.28202600     -1.19394200
H           0.31482500      3.09743200      0.28809000
H           2.92325200      1.46669800     -0.06583600
H           2.79098900      3.23187400      0.02581500
H           2.41930800      2.23633200      1.45548700
