18
b3lypvdz=-235.682342925576 
C           2.31989300     -0.40676600      0.49574500
C           2.26522200     -0.54607500      2.03102600
C           2.90067600     -1.68183100     -0.13341800
C           2.28657000      2.16348400      0.38450400
C           4.22824800      0.90707100     -0.50710800
C           3.02855200      0.87879000      0.08781600
H           1.27514800     -0.31277600      0.13688100
H           1.71754400     -1.45883100      2.32127400
H           3.28257900     -0.61165100      2.45325100
H           1.75517100      0.30472900      2.51007800
H           3.92373700     -1.88355600      0.22746200
H           2.27929100     -2.55193000      0.13553700
H           2.93163100     -1.61572900     -1.23310300
H           1.27112300      2.13945200     -0.05075400
H           2.81050600      3.03720000     -0.03126000
H           2.17116200      2.32477800      1.47141800
H           4.78994300      0.00087700     -0.74289300
H           4.69830500      1.85626400     -0.78075400
