16
b3lypvdz=-271.605493911524 
C          -1.25318300      0.85588800     -0.37161300
C          -2.37362300     -0.08500300      0.08722600
C          -3.70600300      0.25993500     -0.62754200
C          -2.54109700     -0.05906900      1.61206700
O          -5.77909300     -0.66420800      0.21076200
C          -4.74854700     -0.80963400     -0.40521900
H          -0.30271300      0.61286000      0.13240800
H          -1.49624200      1.90744300     -0.13623900
H          -1.08760000      0.78393400     -1.45995700
H          -2.08985600     -1.11333100     -0.21294500
H          -4.10168600      1.22322300     -0.26652200
H          -3.51679500      0.33340000     -1.71496900
H          -2.81334300      0.95345000      1.96049900
H          -3.33318900     -0.74463400      1.95304600
H          -1.60560500     -0.35016300      2.11791000
H          -4.48162700     -1.80859300     -0.85161200
