20
b3lypvdz=-236.904719273628 
C           0.71372400     -0.32047100     -0.15946800
C           0.09415000      0.96038600      0.41508200
C           2.19318000     -0.42665500      0.26149000
C          -0.10969400     -1.55752800      0.22705200
C           2.93298000     -1.68795700     -0.20352300
C           4.44597700     -1.60648800      0.01281100
H           0.68865200     -0.24181200     -1.26506800
H          -0.94490000      1.09694500      0.07184600
H           0.66896600      1.85231900      0.11287200
H           0.08055300      0.93427600      1.51987800
H           2.25639500     -0.35415800      1.36640700
H           2.72621200      0.46256900     -0.12570500
H          -1.16604800     -1.43897800     -0.06809900
H           0.26534300     -2.46798800     -0.26657200
H          -0.08349900     -1.73337100      1.31790300
H           2.53538500     -2.56940300      0.32974800
H           2.72088200     -1.86430700     -1.27536800
H           4.88868500     -0.77600300     -0.56336300
H           4.69185700     -1.43376400      1.07532200
H           4.95599900     -2.53201200     -0.30164600
