15
b3lypvdz=-196.393001781875 
C          -0.01371900      1.00641500      0.29005400
C           0.85487200      2.20689500     -0.09939600
C           2.30053300      2.17017400      0.44599100
C           4.19865500      0.84428400     -0.56686500
C           3.06552700      0.91051900      0.13823600
H           0.35997200      0.07084100     -0.15746200
H          -1.05130800      1.14203800     -0.05672400
H          -0.04283600      0.86056900      1.38444700
H           0.88671100      2.29084900     -1.20083400
H           0.37716600      3.13290300      0.26745900
H           2.85850900      3.03554000      0.04836800
H           2.26244100      2.29909700      1.54610200
H           4.71086400     -0.10560700     -0.74422800
H           4.66098100      1.74217000     -0.99077800
H           2.64793200     -0.01968900      0.54503100
