11
b3lypvdz=-231.102264582942 
C           2.22097700     -0.40132800      0.54497100
O           6.07604100     -0.24409100     -1.45773200
C           5.01472600     -0.33190900     -0.86936800
C           4.21708900      0.84062800     -0.47168400
C           3.01950400      0.80310200      0.14622200
H           1.21569100     -0.34912700      0.09205500
H           2.07079600     -0.41679800      1.63928100
H           2.67941800     -1.35245800      0.24517300
H           4.59925600     -1.33356100     -0.59305000
H           4.67864300      1.80040800     -0.72544700
H           2.55005900      1.76523500      0.38997800
