17
b3lypvdz=-197.61832654549 
C           0.76190400     -0.34957800     -0.02372300
C           2.21497000     -0.46926400      0.48813400
C           2.29254100     -0.51077900      2.02230800
C          -0.14290800     -1.56421800      0.22384100
C           2.96502600     -1.65770500     -0.13542200
H           0.30032100      0.53980500      0.44346600
H           0.78792700     -0.14338100     -1.11005600
H           2.73485900      0.45227800      0.16203400
H           1.86612900     -1.44330200      2.43055600
H           3.33960500     -0.45220800      2.36424700
H           1.74501400      0.33240200      2.47671100
H          -1.15724300     -1.37129500     -0.16344500
H           0.23518600     -2.46599100     -0.28531900
H          -0.23868900     -1.79811500      1.29773700
H           4.03022000     -1.64579500      0.15219000
H           2.54736500     -2.62201300      0.20143500
H           2.91497100     -1.63344100     -1.23809500
