20
b3lypvdz=-236.9029298212 
C           0.73557100     -0.31633900     -0.16101300
C           0.08412000      0.98046700      0.34399000
C           2.17368400     -0.42307500      0.39121000
C          -0.10276000     -1.57070100      0.16526500
C           2.97335400     -1.65034700     -0.05679900
C          -1.56899400     -1.51836600     -0.27848200
H           0.80694600     -0.24571200     -1.26530000
H          -0.87584000      1.18532400     -0.15512500
H           0.74332800      1.84550200      0.15859200
H          -0.10748400      0.93728100      1.43139800
H           2.13183900     -0.39776200      1.49765200
H           2.72161900      0.48939500      0.09203600
H           0.37564000     -2.44298500     -0.31151000
H          -0.05722000     -1.76020300      1.25551500
H           4.00977700     -1.60050200      0.31497100
H           2.53987100     -2.58975600      0.32164000
H           3.01623400     -1.72413700     -1.15775800
H          -2.14361600     -0.75395700      0.26811100
H          -2.06808400     -2.48598900     -0.10241000
H          -1.65868400     -1.29083900     -1.35588500
