23
b3lypvdz=-276.19132474505 
C           0.74292500     -0.37255800     -0.25734400
C          -0.00084700      0.92285300      0.08356000
C           2.21905100     -0.35794200      0.15661000
C          -1.47636500      0.91967000     -0.33243900
C           2.98141000     -1.62571200     -0.24711600
C          -2.19397800      2.22499700      0.01931000
C           4.43680000     -1.63955600      0.22807100
H           0.23499900     -1.22832900      0.22616400
H           0.66872200     -0.55960100     -1.34630700
H           0.50839400      1.77613900     -0.40342700
H           0.07330600      1.11410500      1.17188600
H           2.29276200     -0.21383600      1.25211800
H           2.71478500      0.52289200     -0.29404200
H          -1.99333100      0.06913900      0.14873700
H          -1.54869600      0.73632700     -1.42128600
H           2.45237100     -2.51264000      0.14888700
H           2.95117400     -1.72578700     -1.34844100
H          -3.23722200      2.22819700     -0.33630800
H          -2.21016400      2.38767200      1.11119500
H          -1.68615900      3.09343600     -0.43398400
H           4.98060000     -0.74419900     -0.12015100
H           4.49947200     -1.65447200      1.33025500
H           4.98059100     -2.52059500     -0.15015000
