23
b3lypvdz=-276.187243700287 
C           0.78250200     -0.38521200      0.04862300
C          -0.02574700      0.90158900      0.25953500
C           2.25078800     -0.23687300      0.45961400
C          -1.43285200      0.92436200     -0.37058400
C          -2.35067000     -0.24643700      0.04897800
C          -2.67135300     -0.37255100      1.54282500
C          -2.08797000      2.29534100     -0.14089300
H           0.32348000     -1.21540000      0.61485200
H           0.73103100     -0.68058200     -1.01638800
H           0.54285300      1.74634800     -0.17351800
H          -0.09247400      1.11767800      1.34343900
H           2.34589900      0.03515200      1.52580400
H           2.81538200     -1.17049800      0.29963500
H           2.74864100      0.55516100     -0.12494500
H          -1.29306400      0.81328200     -1.46351900
H          -3.29615300     -0.14587200     -0.51443300
H          -1.89837600     -1.19154200     -0.30067400
H          -3.13187300      0.54315200      1.94963400
H          -3.38183300     -1.19753100      1.71840900
H          -1.77038400     -0.58581400      2.14182500
H          -3.07241700      2.35765600     -0.63383800
H          -2.23343600      2.50653600      0.93239100
H          -1.45937500      3.10335600     -0.55097000
