17
b3lypvdz=-197.61846230135 
C           0.84314000     -0.27313300     -0.21348000
C           0.07784800      0.97031400      0.26688400
C           2.28773300     -0.39520000      0.29132200
C           0.76175400      2.31697300      0.00801300
C           2.89926000     -1.76677100     -0.00410800
H           0.27768400     -1.16677200      0.11107500
H           0.84554700     -0.30754000     -1.32050900
H          -0.91531000      0.97166400     -0.21608600
H          -0.11377600      0.87317100      1.35199800
H           2.31830700     -0.20822500      1.38185100
H           2.91082100      0.39419100     -0.16586500
H           1.68667000      2.42822300      0.59712100
H           1.02997500      2.44544500     -1.05553100
H           0.09608800      3.15044900      0.28805200
H           3.93870600     -1.83680100      0.35648100
H           2.32374400     -2.57012500      0.48635400
H           2.90271000     -1.98016300     -1.08737300
