23
b3lypvdz=-276.188800440081 
C           0.79913400     -0.37137400     -0.06774100
C           0.02252700      0.89891700      0.31277900
C           2.23992900     -0.44069700      0.47534200
C          -1.38786300      0.99812400     -0.29741400
C          -2.33099600     -0.15585700      0.06821000
C           2.27980300     -0.51062500      2.00944000
C           2.98529200     -1.63867500     -0.13324700
H           0.25390400     -1.26516300      0.28909100
H           0.83216800     -0.45044300     -1.17125500
H           0.60680600      1.78282200     -0.00643400
H          -0.06472500      0.96695300      1.41320200
H           2.76899600      0.48014700      0.15797500
H          -1.84334800      1.94895400      0.03415800
H          -1.30674100      1.06404800     -1.39904000
H          -3.34722500      0.03165600     -0.31727300
H          -2.40416200     -0.28432300      1.16264100
H          -1.99159900     -1.11383500     -0.35961700
H           1.69868000     -1.37434800      2.38029100
H           3.31524700     -0.62646600      2.37174800
H           1.86561200      0.39528100      2.48056700
H           4.02822200     -1.68418500      0.22301600
H           2.49574200     -2.58913400      0.14524100
H           3.00829600     -1.58067500     -1.23508000
