21
b3lypvdz=-274.962502998359 
C           0.76589400     -0.29762700     -0.15691500
C          -0.02624600      0.98089900      0.18956700
C           2.16973500     -0.30168700      0.49813700
C          -1.47441100      1.01543300     -0.31087400
C           0.02748000     -1.58840900      0.23052400
C           4.24148000      0.77343500     -0.44548500
C           3.05946600      0.86623300      0.17069400
H           0.91167400     -0.31215500     -1.25420300
H           0.51105700      1.84768300     -0.23190800
H          -0.01879800      1.12425500      1.28782400
H           2.03180000     -0.35309200      1.59688400
H           2.68992300     -1.23123300      0.20676700
H          -2.10284400      0.25589900      0.18063100
H          -1.93507800      1.99673300     -0.10857200
H          -1.53287200      0.83944700     -1.39973900
H          -0.90786800     -1.71495500     -0.33539900
H           0.65758500     -2.47115500      0.02850200
H          -0.22510400     -1.60021400      1.30600900
H           4.64169500     -0.19474000     -0.76547100
H           4.85621900      1.65429400     -0.64945100
H           2.70361300      1.85775700      0.47737700
