20
b3lypvdz=-236.904719618014 
C           0.85054800     -0.29493900     -0.00306300
C           0.03380300      0.97980900      0.25969200
C          -1.35993000      0.86290100     -0.38865200
C           0.80591000      2.22984100     -0.18988100
C          -2.28226800      2.07722400     -0.19852900
C          -3.73762200      1.79067300     -0.59091500
H           1.81800500     -0.26836000      0.52512500
H           0.30823000     -1.19309300      0.33960400
H           1.05741800     -0.41813800     -1.08114400
H          -0.11717100      1.05811100      1.35422200
H          -1.85818500     -0.02975100      0.03390600
H          -1.24159900      0.66143300     -1.47199100
H           1.80977800      2.25201900      0.26607500
H           0.93418100      2.24955200     -1.28729900
H           0.29287000      3.15869800      0.10729900
H          -2.25237200      2.40120200      0.85880000
H          -1.90541300      2.92649200     -0.79497800
H          -4.16293900      0.97936200      0.02392800
H          -3.81437700      1.48071400     -1.64839800
H          -4.37226600      2.68265000     -0.45380300
