21
b3lypvdz=-274.963263437222 
C           0.77283300     -0.27935300     -0.01918900
C           2.24179800     -0.42277200      0.42063200
C          -2.31849600     -0.23471200     -0.00595000
C          -0.07855000     -1.50591500      0.33454800
C          -1.50525300     -1.51334400     -0.24420600
C           4.18261100      0.87386500     -0.54870000
C           3.06269000      0.81361800      0.17695200
H           0.34180800      0.62032600      0.45726200
H           0.74110400     -0.09118600     -1.10931300
H           2.26336000     -0.66327900      1.50332900
H           2.70498500     -1.28146900     -0.09710900
H          -1.88809400      0.62654300     -0.54386500
H          -3.35501900     -0.35576200     -0.36255500
H          -2.36095400      0.03228500      1.06512000
H           0.44269000     -2.41535800     -0.01936900
H          -0.12541600     -1.59571500      1.43761900
H          -2.04676700     -2.37395100      0.18841300
H          -1.45551000     -1.70605500     -1.33270700
H           4.59766700     -0.01768600     -1.03145800
H           4.72957000      1.81129200     -0.68550900
H           2.68134200      1.73502800      0.64045500
