23
b3lypvdz=-276.191278960982 
C           0.81286500     -0.39039100     -0.19790900
C          -0.01582300      0.86144900      0.10458400
C           2.24082400     -0.34291500      0.35514100
C          -1.46146400      0.77905700     -0.39561800
C           3.04578000     -1.60543400      0.04232000
C          -2.30941200      2.00453500     -0.03815300
C          -3.73473800      1.94507400     -0.59222100
H           0.29659600     -1.27731100      0.21799500
H           0.84693900     -0.55581400     -1.29236500
H           0.47590900      1.74711400     -0.34086800
H          -0.01481900      1.04196000      1.19750300
H           2.20119800     -0.19040400      1.45038600
H           2.76382500      0.54342700     -0.04977700
H          -1.94152200     -0.12709200      0.02140400
H          -1.46336100      0.63578700     -1.49398900
H           4.03587400     -1.58930700      0.52494700
H           2.52021000     -2.50992900      0.39537000
H           3.20333100     -1.72326900     -1.04371700
H          -2.34079500      2.10728800      1.06298700
H          -1.80600800      2.91774600     -0.40759400
H          -4.25542000      1.02925300     -0.26232200
H          -3.73810800      1.94345200     -1.69641700
H          -4.33978000      2.80432600     -0.25918600
