21
b3lypvdz=-274.964266500572 
C           0.78728900     -0.34331000     -0.03916100
C           2.24927000     -0.40674300      0.46110100
C           2.24953100     -0.55393900      2.00086700
C           2.91173600     -1.66102000     -0.14227600
C           2.30851800      2.20103300      0.38338800
C           4.20795000      0.88841300     -0.48897100
C           2.99525600      0.88331100      0.08224500
H           0.21844100      0.46491000      0.44678700
H           0.26322600     -1.28847300      0.18383400
H           0.74350000     -0.18274100     -1.13012200
H           1.73454900     -1.48317800      2.30171800
H           3.27873000     -0.59435600      2.39446500
H           1.73008900      0.28056400      2.49924100
H           3.93538600     -1.80845500      0.23825300
H           2.33046000     -2.55887000      0.12629000
H           2.96029400     -1.60721100     -1.24225700
H           1.41179400      2.34044800     -0.24400800
H           2.98293700      3.04888100      0.18858700
H           1.98165800      2.26680000      1.43651000
H           4.74950700     -0.02397400     -0.74290000
H           4.71347800      1.82961100     -0.72559200
