14
b3lypvdz=-270.391713827992 
O           6.01540900     -0.49147100     -1.30338200
C           0.85300600      2.16484500     -0.13037000
C           2.29278400      2.22596700      0.41052900
C           4.94185500     -0.36484800     -0.74895400
C           4.27574600      0.92418300     -0.49649000
C           3.07777800      0.98360500      0.11077800
H           0.31080300      1.29285700      0.27267700
H           0.84228200      2.08772300     -1.23037200
H           0.28742300      3.06657700      0.15473500
H           2.81920300      3.10833500      0.01123800
H           2.25216500      2.35060300      1.51053900
H           4.37177500     -1.26102900     -0.38217200
H           4.80819500      1.82039300     -0.83304100
H           2.60967800      0.03786200      0.42188400
