19
b3lypvdz=-310.886928410506 
C          -1.27877400      1.11508000     -0.37467700
C          -2.20817800     -0.05290900     -0.01750500
C          -3.56385700      0.12791800     -0.75227400
O          -5.48962100     -0.46478800      0.55880900
C          -0.19422000     -1.66767000      0.28702900
C          -1.58804400     -1.43752000     -0.30659100
C          -4.65754100     -0.79188700     -0.25821400
H          -0.35116600      1.09419800      0.21650100
H          -1.77681600      2.07773700     -0.17375800
H          -0.99887000      1.09882500     -1.44300000
H          -2.41867700      0.00889700      1.06731100
H          -3.92122900      1.15905300     -0.59910300
H          -3.41153400     -0.04450200     -1.83457600
H           0.56163600     -1.00884900     -0.16860200
H           0.13343800     -2.70583600      0.11428300
H          -0.17967500     -1.48955500      1.37651000
H          -2.26886600     -2.21795200      0.07730200
H          -1.54259800     -1.58693600     -1.40266200
H          -4.66491000     -1.82660500     -0.69418200
