23
b3lypvdz=-276.189664079196 
C           0.82309700     -0.32979700     -0.02868100
C           0.07614600      0.97415600      0.29110500
C          -1.33716800      1.01800100     -0.32555900
C          -2.31679800     -0.11059000      0.05760500
C          -3.64748100      0.06528600     -0.69537900
C          -2.56517600     -0.17785300      1.57236500
C           0.88512500      2.19786500     -0.16926500
H           1.84682600     -0.30680800      0.38126400
H           0.32015300     -1.20950100      0.40474300
H           0.89984400     -0.48800800     -1.11958400
H          -0.02009300      1.04442800      1.39054900
H          -1.80428100      1.98514100     -0.05396700
H          -1.23198600      1.03020900     -1.42796400
H          -1.88095700     -1.07462000     -0.26422300
H          -4.13822500      1.01256300     -0.40813300
H          -4.34776700     -0.75592500     -0.46767400
H          -3.49586700      0.08181800     -1.78859400
H          -2.94756200      0.78684500      1.95196600
H          -3.31303100     -0.95083800      1.81676700
H          -1.64826600     -0.42111900      2.13335400
H           1.88010200      2.22054500      0.30543800
H           1.03413200      2.18888200     -1.26415000
H           0.36873300      3.13802100      0.09081600
