16
b3lypvdz=-271.601613365055 
C           2.14775500     -0.47155400      0.53573900
C           2.27791100     -0.53846700      2.05772900
O           6.14074700     -0.48936200     -1.39988500
C           2.90003200     -1.58019200     -0.21966100
C           4.43387900     -1.57958800     -0.09042500
C           5.13329400     -0.40182200     -0.73451900
H           1.08095700     -0.54305400      0.26159100
H           2.47563600      0.52143900      0.18153300
H           1.94901200     -1.51848700      2.44558600
H           3.31455700     -0.38107600      2.39693900
H           1.65784600      0.22989500      2.54439700
H           2.53544200     -2.55810000      0.14237000
H           2.63183400     -1.53700500     -1.28945200
H           4.72210400     -1.57271300      0.97805400
H           4.87299000     -2.49019000     -0.52743200
H           4.65910300      0.59957600     -0.55346400
