18
b3lypvdz=-235.677568138018 
C           0.78989500     -0.29376000     -0.09918700
C           0.02822000      0.97227000      0.30360300
C           2.24692500     -0.39819700      0.42141600
C           2.89501800     -1.69741000     -0.06589900
C           4.18760400      0.93069300     -0.57828700
C           3.05536700      0.84558900      0.12791500
H           0.24189100     -1.17847200      0.27239300
H           0.80211900     -0.38194500     -1.20213900
H          -1.02744800      0.90870600     -0.00707100
H           0.45172800      1.87486200     -0.16473700
H           0.04499900      1.12738600      1.39712800
H           2.17725700     -0.45521200      1.52879100
H           3.89134400     -1.84814500      0.37831600
H           2.26867500     -2.56265600      0.20617800
H           3.01018900     -1.70167700     -1.16358700
H           4.66035600      0.05967800     -1.03893800
H           4.69178200      1.89142800     -0.71712100
H           2.65327800      1.76776000      0.56472600
