17
b3lypvdz=-197.61856230661 
C          -1.44475600      1.04663400     -0.33809200
C          -2.19793600     -0.22750900      0.07046000
C          -0.05484000     -1.67399700      0.26825000
C          -1.48518100     -1.54756000     -0.27350300
C          -2.31002700      2.30920300     -0.23195200
H          -0.54905300      1.16929800      0.29579200
H          -1.07913900      0.94304700     -1.37730700
H          -3.18724600     -0.23116600     -0.42300600
H          -2.39784800     -0.19134100      1.15897700
H           0.62072400     -0.93028900     -0.18499600
H           0.36199800     -2.67059500      0.04486100
H          -0.02328900     -1.53400000      1.36371800
H          -2.09367400     -2.38525300      0.11279500
H          -1.46528000     -1.66703100     -1.37376100
H          -3.18772200      2.24746400     -0.89791900
H          -2.68426400      2.45402000      0.79651500
H          -1.73876500      3.21007400     -0.51273300
