15
b3lypvdz=-308.490917207369 
C           2.28298100     -0.41662700      0.48129900
O           6.07436500     -0.32021900     -1.29694000
C           2.90158800     -1.66761300     -0.16102000
C           4.43539400     -1.63423900     -0.11389800
C           5.00589600     -0.35004800     -0.70903100
C           4.19769300      0.87636400     -0.50596800
C           2.97573300      0.84996300      0.05875700
H           1.21040700     -0.34453600      0.22657000
H           2.32069200     -0.48600700      1.58823800
H           2.52006700     -2.57436400      0.33521600
H           2.57840300     -1.72499300     -1.21601600
H           4.78236300     -1.68667600      0.93692900
H           4.88817200     -2.48526900     -0.64338400
H           4.66722300      1.80864100     -0.83334900
H           2.44092200      1.79202300      0.23159600
