14
b3lypvdz=-158.335356533904 
C          -0.13284400     -1.61944600      0.30703400
C          -2.19597400     -0.12429400      0.01204900
C          -3.54880400      0.06683400     -0.67779800
C          -1.49489500     -1.43515700     -0.36506500
H           0.54863600     -0.78234200      0.07316900
H           0.36188900     -2.54651200     -0.02647000
H          -0.22604800     -1.66696600      1.40635300
H          -1.52962600      0.72521000     -0.23202600
H          -2.33273700     -0.09023500      1.10995700
H          -4.06987300      0.96518400     -0.30813100
H          -4.21640800     -0.79531400     -0.50196800
H          -3.43302100      0.17428500     -1.77075600
H          -2.15499000     -2.28529900     -0.10558200
H          -1.37550400     -1.47604700     -1.46476500
