5
b3lypvdz=-40.480478132379 
C           0.76533900     -0.31689300     -0.06680800
H           0.25914500      0.59665300      0.27900800
H           1.76014000     -0.38150700      0.39900100
H           0.16879300     -1.19542100      0.21982200
H           0.87358300     -0.28633300     -1.16162400
