21
b3lypvdz=-274.966280921381 
C           0.70566800     -0.31762000      0.03180900
C           2.15483300     -0.31564000      0.57022100
C           2.20010000     -0.44791100      2.10468600
C           0.01779600     -1.68325400      0.11806100
C           2.39858200      2.27018600      0.38959900
C           4.11370900      0.73669700     -0.55078200
C           2.95189500      0.89500100      0.09896300
H           0.10925200      0.43586300      0.57843700
H           0.71902300      0.00702800     -1.02371000
H           2.65988200     -1.20070700      0.14268900
H           1.76799300     -1.40425300      2.44039000
H           3.23781200     -0.39877000      2.47076900
H           1.62977800      0.35616500      2.60005600
H          -0.98639300     -1.64919300     -0.33461300
H           0.59749400     -2.44894800     -0.42614700
H          -0.09742700     -2.03127700      1.15785400
H           1.46316000      2.45076100     -0.16823400
H           3.11584900      3.05357400      0.10218100
H           2.15163500      2.40217000      1.45791700
H           4.50902700     -0.25800900     -0.77725600
H           4.70913300      1.59283500     -0.88039200
