23
b3lypvdz=-276.186880888194 
C           0.83736500     -0.34650900     -0.01517600
C           0.07377700      0.95463700      0.30982300
C           2.28995800     -0.39704200      0.48136300
C          -1.34267800      0.96217400     -0.30597500
C          -2.29613600     -0.17764800      0.09218900
C          -2.65035700     -0.22109500      1.58383700
C           0.83064600      2.21375600     -0.14734600
H           0.29239200     -1.19955900      0.42574800
H           0.82456900     -0.50784300     -1.11082300
H          -0.02540400      1.01828700      1.41087100
H           2.35416400     -0.18732400      1.56413000
H           2.72578600     -1.39568200      0.30768700
H           2.93142900      0.33088500     -0.04072500
H          -1.82797800      1.92261300     -0.04596200
H          -1.23883900      0.96424400     -1.40839600
H          -3.22772700     -0.05616200     -0.48951500
H          -1.87475200     -1.15061700     -0.21873500
H          -3.06195700      0.74607900      1.92278200
H          -3.40894100     -0.99502100      1.78868000
H          -1.77171300     -0.44940200      2.20991800
H           1.78384500      2.34013400      0.38950100
H           1.05194200      2.17765800     -1.22955000
H           0.22730700      3.11873600      0.04037500
