14
b3lypvdz=-158.333315400044 
C           0.79319000     -0.33682900     -0.07453300
C          -0.07722300     -1.55737400      0.24991100
C          -2.28870500     -0.21842300      0.09969300
C          -1.51828500     -1.48698200     -0.28833200
H           0.42482500      0.57076300      0.43110900
H           1.83232600     -0.49781300      0.25797900
H           0.81441800     -0.13176100     -1.15949300
H           0.40546200     -2.46307300     -0.15948200
H          -0.10556300     -1.69493600      1.34773000
H          -1.84706100      0.68178500     -0.35782600
H          -3.33595200     -0.27688300     -0.24096700
H          -2.29807700     -0.07042600      1.19418300
H          -2.07199600     -2.37166800      0.07528600
H          -1.49876000     -1.57108100     -1.39185900
