17
b3lypvdz=-309.685008596907 
O           6.15781100     -0.31245900     -1.08772500
C           0.82547300      2.14946600     -0.07938100
C           2.29775800      2.28481300      0.34295300
C           4.41073400     -1.69505400     -0.21845600
C           5.03583700     -0.36282200     -0.60928400
C           4.26133200      0.89164000     -0.42858900
C           3.06663700      1.00648600      0.17453800
H           0.31302700      1.36892800      0.50721000
H           0.73819000      1.87632100     -1.14452900
H           0.28027000      3.09389600      0.07888000
H           2.79427500      3.09179200     -0.22107100
H           2.33250500      2.57966800      1.41028400
H           3.53123700     -1.90467800     -0.84941800
H           4.06445300     -1.69561800      0.82851700
H           5.15730500     -2.48752500     -0.36244100
H           4.76868800      1.77374000     -0.83563500
H           2.58926800      0.10940500      0.59044700
