19
b3lypvdz=-273.775219843275 
C           0.77026700     -0.32472200     -0.06806700
C           0.05253500      0.98100200      0.30814800
C           2.21706800     -0.35968800      0.46607300
C           0.84933600      2.22149100     -0.12483200
C           2.29507900      2.19070300      0.41249000
C           4.18618400      0.83563800     -0.51214100
C           2.98965900      0.88560700      0.08621900
H           0.20673300     -1.19041000      0.32199400
H           0.78854200     -0.42777400     -1.16923300
H          -0.95207000      1.00166200     -0.14803200
H          -0.09663600      1.01078800      1.40460900
H           2.18558400     -0.43595700      1.57174700
H           2.73741900     -1.25942300      0.09969400
H           0.87415800      2.27400300     -1.22935900
H           0.34008400      3.13653900      0.22521500
H           2.86956600      3.04175800      0.01224000
H           2.26692100      2.31316300      1.51408300
H           4.66877400     -0.11831400     -0.74502500
H           4.72839700      1.74673700     -0.78202200
