20
b3lypvdz=-236.904011413391 
C           0.04890500      1.00209800      0.28655400
C          -1.33956400      0.85572300     -0.36404700
C           0.85334900      2.23684500     -0.14556000
C          -2.27493100      2.06492700     -0.20429300
C           2.28402500      2.24078400      0.41050000
C          -3.72190200      1.75905200     -0.61416200
H           0.63879200      0.09517200      0.05398300
H          -0.06660200      1.01735400      1.38764700
H          -1.83117100     -0.03513700      0.06893800
H          -1.21439200      0.63996800     -1.44285000
H           0.88964700      2.28275100     -1.25052600
H           0.33571600      3.15370400      0.18906200
H          -2.26243000      2.40953700      0.84690700
H          -1.89646800      2.90603400     -0.81185400
H           2.84497400      1.35193600      0.07271800
H           2.84274500      3.13185800      0.07853900
H           2.28390700      2.23625800      1.51488700
H          -4.15507100      0.96507200      0.01748800
H          -3.77693400      1.41580100     -1.66274600
H          -4.36359300      2.65136300     -0.51788600
