20
b3lypvdz=-236.902425506958 
C           0.70437700     -0.34324800     -0.11324500
C           0.08834200      0.99744800      0.30932300
C          -0.13664500     -1.58642200      0.23694000
C           0.90297000      2.24132200     -0.09326900
C          -1.57106700     -1.59216600     -0.31027400
C           2.34689300      2.27684400      0.42778100
H           1.69175500     -0.45936800      0.36740600
H           0.89250500     -0.32732500     -1.20517000
H          -0.91723200      1.09616300     -0.13628700
H          -0.05770200      0.99953300      1.40754600
H           0.39372300     -2.47736600     -0.14526800
H          -0.17006200     -1.70153700      1.33739900
H           0.91277100      2.32368700     -1.19718000
H           0.36894700      3.13646200      0.27415600
H          -2.19450200     -0.81236700      0.15651100
H          -2.06078200     -2.56067200     -0.11022700
H          -1.58839100     -1.42822700     -1.40308200
H           2.96367100      1.47671600     -0.01306700
H           2.83112500      3.23581400      0.17606600
H           2.38170500      2.16251000      1.52644200
