17
b3lypvdz=-197.619763853745 
C           0.81124300     -0.32298500     -0.05253900
C           0.04251400      0.96200600      0.29308600
C          -1.37468500      0.98862600     -0.31095200
C          -2.27401300     -0.18904900      0.08520000
C           0.82876700      2.20842600     -0.14110900
H           1.83467700     -0.29095600      0.35729300
H           0.32267800     -1.21767000      0.36543900
H           0.88960300     -0.45983400     -1.14624200
H          -0.06285200      1.00099900      1.39526700
H          -1.86471700      1.93084300     -0.00299500
H          -1.29471900      1.03130700     -1.41453500
H          -3.29541300     -0.05094400     -0.30627800
H          -2.34474500     -0.28813800      1.18254200
H          -1.89675300     -1.14413500     -0.31507000
H           1.82308300      2.24082000      0.33422500
H           0.97757100      2.22196600     -1.23576900
H           0.29466000      3.13351800      0.13623800
