23
b3lypvdz=-276.188274087807 
C           0.14484900      0.96009300      0.20931500
C          -1.29944700      1.00844500     -0.30600100
C          -2.24777200     -0.16528200      0.06016900
C          -3.53636300     -0.00607000     -0.77051300
C          -2.61510700     -0.11597600      1.55689500
C           0.88577600      2.27951500     -0.03431500
C          -1.60855300     -1.53125100     -0.25568100
H           0.69148400      0.13679200     -0.28408500
H           0.16181600      0.73191400      1.29111300
H          -1.77147900      1.94116000      0.05906500
H          -1.26854900      1.10342400     -1.40872900
H          -4.01045600      0.97397200     -0.58567600
H          -4.27412700     -0.78558500     -0.51596600
H          -3.32745000     -0.08068300     -1.85170300
H          -3.04866600      0.86168600      1.83034100
H          -3.36572700     -0.88706400      1.79990900
H          -1.73996400     -0.29165700      2.20419700
H           1.92698300      2.23600000      0.32554500
H           0.91051000      2.53628700     -1.10824200
H           0.38927500      3.11488300      0.48948300
H          -0.72241200     -1.72249500      0.37039200
H          -2.32626400     -2.34788000     -0.06497300
H          -1.29485700     -1.59862700     -1.31193900
