14
b3lypvdz=-158.333557946287 
C           0.79192700     -0.32256300     -0.05113400
C           0.08384300      0.99830600      0.29791700
C           2.21932300     -0.45861900      0.49581400
C           0.82020700      2.27306500     -0.13455800
H           0.17829400     -1.15714200      0.33448700
H           0.81287100     -0.44253100     -1.15141200
H          -0.91736100      0.98679200     -0.16909000
H          -0.08740900      1.03886900      1.39032700
H           2.24778000     -0.31117500      1.59044500
H           2.62640200     -1.46136000      0.28197500
H           2.90501700      0.27402300      0.03976500
H           1.76361400      2.40922700      0.41921600
H           1.06081200      2.25675400     -1.21243300
H           0.19758000      3.16365600      0.05648400
