23
b3lypvdz=-276.187896983779 
C           0.87258600     -0.32023100     -0.13394100
C           2.26351500     -0.50513300      0.49688200
C          -2.26821200     -0.05951000     -0.03135500
C          -3.72329500     -0.02417600     -0.50570900
C          -0.10266800     -1.48465900      0.10101300
C           3.03226400     -1.74227800      0.02445000
C          -1.50553400     -1.30537700     -0.50466300
H           0.43576800      0.60755700      0.27369700
H           0.98404700     -0.14946700     -1.22255300
H           2.16159100     -0.54082800      1.59810700
H           2.86613000      0.39576800      0.28049800
H          -1.74980400      0.84988500     -0.38235200
H          -2.24076900     -0.01688100      1.07419800
H          -4.26318400      0.84328600     -0.09255500
H          -4.26857600     -0.93074400     -0.18989800
H          -3.79161800      0.03314100     -1.60619100
H           0.33168600     -2.41124700     -0.31184800
H          -0.20205700     -1.65754800      1.19030500
H           4.03207700     -1.78594400      0.48592700
H           2.51220000     -2.67712700      0.29016300
H           3.16924000     -1.73828400     -1.07117400
H          -2.10503200     -2.20146200     -0.25586500
H          -1.43475600     -1.29044000     -1.60933800
