18
b3lypvdz=-235.702732207782 
C          -1.31984400      1.03555400     -0.31596600
C          -2.19025500     -0.18772800      0.02866500
C          -3.50700400      0.12016500     -0.71399100
C          -1.57084700     -1.54266100     -0.31260700
C          -2.29290000      2.22844600     -0.22466600
C          -3.69021500      1.65799500     -0.61719900
H          -0.44611700      1.14721800      0.34690300
H          -0.93520500      0.92715300     -1.34767300
H          -2.39477500     -0.16205200      1.11724200
H          -4.36306400     -0.43893100     -0.30261100
H          -3.40308300     -0.18711000     -1.77074000
H          -0.64023800     -1.71367600      0.25336600
H          -2.26059300     -2.37077100     -0.07760400
H          -1.32657300     -1.60456000     -1.38831000
H          -2.31875300      2.60580600      0.81162100
H          -1.98438300      3.07345500     -0.85982100
H          -4.05116300      2.07647900     -1.56977400
H          -4.44358700      1.92171600      0.14226400
