20
b3lypvdz=-236.901739672657 
C           0.74528500     -0.30917800     -0.07188600
C           0.06294600      1.00118400      0.35801500
C           2.17502000     -0.43213000      0.50402000
C           2.28074000     -0.50130900      2.03470800
C          -0.09790200     -1.56537300      0.22864000
C          -1.52370000     -1.54824000     -0.33960200
H           0.85966200     -0.25978200     -1.17315700
H          -0.84647700      1.19433100     -0.23242000
H           0.73884800      1.86047100      0.20486100
H          -0.22878500      0.98761200      1.42280300
H           2.65429000     -1.32949200      0.07095900
H           2.76996300      0.42875700      0.14666200
H           1.78505400     -1.39604900      2.44517200
H           3.33744600     -0.54261600      2.34656400
H           1.83016400      0.38048200      2.51928300
H           0.43889000     -2.44226000     -0.17878800
H          -0.15760500     -1.72222500      1.32150900
H          -2.14769000     -0.77919700      0.14340200
H          -2.02004600     -2.51978400     -0.17516500
H          -1.52550400     -1.35100200     -1.42657900
