14
b3lypvdz=-270.387082991578 
C           0.74839800     -0.33483800     -0.06118500
C           2.18220200     -0.38318200      0.49548000
O           6.16613400     -0.24529500     -1.28268400
C           5.06706400     -0.33247900     -0.76855600
C           4.22261000      0.83903600     -0.47880800
C           2.99405300      0.81008700      0.07576100
H           0.23338800      0.59285600      0.24228200
H           0.15391700     -1.18255100      0.31473500
H           0.74515900     -0.37678800     -1.16310300
H           2.13177700     -0.38925000      1.60158000
H           2.66885300     -1.32375700      0.19827900
H           4.65235200     -1.33064500     -0.47877700
H           4.68385100      1.79476700     -0.74882500
H           2.50164100      1.77713900      0.25012200
