17
b3lypvdz=-197.618796594226 
C           0.00973300      1.03523800      0.28632000
C          -1.38098700      0.94708000     -0.36900100
C           0.86021500      2.24262700     -0.13364400
C          -2.26613600      2.18906000     -0.20048400
C           2.29583500      2.17853600      0.40598600
H           0.56470600      0.10913500      0.04342100
H          -0.10500400      1.04311400      1.38782600
H          -1.90785000      0.07168400      0.05179100
H          -1.25836600      0.73937200     -1.44899400
H           0.88866200      2.30471200     -1.23808800
H           0.38424800      3.17464800      0.21985500
H          -3.27227100      2.00899200     -0.61502500
H          -2.38463600      2.46181400      0.86298600
H          -1.84739600      3.06241200     -0.72727000
H           2.81577600      1.27357500      0.04615200
H           2.88643700      3.05167700      0.08145100
H           2.30893300      2.15522400      1.51001700
