17
b3lypvdz=-197.61893355182 
C           0.82244600     -0.29228100     -0.08735400
C           0.06166800      1.00570300      0.21425400
C           2.23021100     -0.37352200      0.52193800
C          -1.38376100      0.98590900     -0.29074200
C           2.23796900     -0.59721200      2.03770900
H           0.22713900     -1.15324600      0.27678100
H           0.88624700     -0.41759000     -1.18457900
H           0.60773900      1.85517700     -0.23914100
H           0.06401800      1.19650200      1.30356700
H           2.78483700     -1.19585900      0.03621600
H           2.79351400      0.54755800      0.27538100
H          -1.94756300      0.14941500      0.15779300
H          -1.92176400      1.91462000     -0.03770900
H          -1.43038800      0.85841300     -1.38714200
H           1.67245700     -1.50872600      2.30250200
H           3.26211000     -0.72115600      2.42614800
H           1.77542200      0.23809500      2.58957800
