17
b3lypvdz=-197.619616409631 
C           0.77250500     -0.30513400     -0.03702000
C           0.00763700      0.99258300      0.26665800
C          -1.38377300      0.95334300     -0.39515800
C           0.83233900      2.22451400     -0.13726700
C          -2.24715200      2.20450400     -0.18741600
H           1.73832900     -0.33574300      0.49372200
H           0.19235000     -1.19175700      0.27220800
H           0.97829300     -0.39882400     -1.11837500
H          -0.14634400      1.04024800      1.36263200
H          -1.92665400      0.07533200      0.00034500
H          -1.26177800      0.77251800     -1.48094900
H           1.83741200      2.18708900      0.31493500
H           0.95814300      2.28212600     -1.23362300
H           0.36039800      3.16182800      0.19846500
H          -3.25866100      2.05312000     -0.59922300
H          -2.35404700      2.44710800      0.88450900
H          -1.81739700      3.08564400     -0.69074600
