20
b3lypvdz=-236.903785171196 
C           0.82384600     -0.26640400     -0.20715100
C           0.08345100      0.96266300      0.34562900
C           2.31076400     -0.35277500      0.16204600
C           0.70918700      2.32119100      0.01384600
C           2.93785400     -1.71167600     -0.16935400
C           4.44958200     -1.74911400      0.05575100
H           0.31000900     -1.17145300      0.16638400
H           0.72403400     -0.30015100     -1.30936400
H          -0.95351900      0.94333700     -0.03429400
H           0.00523100      0.86634100      1.44483600
H           2.43908600     -0.15159600      1.24370700
H           2.87257200      0.44401100     -0.35866100
H           1.69223500      2.44974900      0.49614300
H           0.85372600      2.45204800     -1.07299900
H           0.06532200      3.14377300      0.36624600
H           2.44982000     -2.49211400      0.44303200
H           2.71261000     -1.97376800     -1.22015500
H           4.97102600     -1.02825300     -0.59612900
H           4.70789200     -1.49029900      1.09757100
H           4.86957300     -2.74621000     -0.15548400
