17
b3lypvdz=-197.618655541473 
C           0.73024000     -0.32048300     -0.02676000
C          -0.11661500      0.93076900      0.26943800
C          -1.49947500      0.96215200     -0.39439700
C           0.05204400     -1.66361300      0.27612500
C          -2.20954900      2.31050100     -0.21789200
H           1.66675300     -0.24956500      0.55456600
H           1.03157100     -0.30736700     -1.09125900
H           0.45603100      1.81827000     -0.05985000
H          -0.24275600      1.03899500      1.36466800
H          -2.13499500      0.16252300      0.02631900
H          -1.39613500      0.74360500     -1.47425200
H          -0.80155900     -1.85202300     -0.39503000
H           0.76423800     -2.49521000      0.13951200
H          -0.32101300     -1.70632100      1.31489900
H          -3.20136800      2.30640400     -0.69905100
H          -2.35290300      2.54968500      0.85019500
H          -1.62330900      3.12967700     -0.66903100
