23
b3lypvdz=-276.187798834663 
C           0.83997300     -0.24544800     -0.20504300
C           0.05726200      1.01795000      0.20666100
C           2.27701300     -0.37339600      0.31498800
C          -1.33663200      0.97593700     -0.45335400
C           0.81416000      2.32245200     -0.08319400
C           2.85829400     -1.76402900      0.04730000
C          -2.28078400      2.12822100     -0.10610800
H           0.26293500     -1.12439200      0.13955000
H           0.85486200     -0.31697100     -1.31063100
H          -0.09196800      0.96846500      1.30419200
H           2.30681500     -0.16437700      1.40097000
H           2.91892700      0.39084800     -0.15692800
H          -1.81661500      0.02145900     -0.16943900
H          -1.20719900      0.92940700     -1.55170500
H           1.77697800      2.35311000      0.44928000
H           1.02245100      2.44713200     -1.16104400
H           0.23657700      3.19884100      0.24990300
H           3.89392600     -1.85368900      0.41334400
H           2.26006400     -2.54474600      0.54644200
H           2.85994100     -1.99401800     -1.03248000
H          -3.27199800      1.96984400     -0.56057700
H          -2.42401200      2.22348100      0.98403700
H          -1.90407100      3.09581900     -0.47476300
