23
b3lypvdz=-276.187591616403 
C           0.80199500     -0.32526300     -0.01552700
C          -0.03713200      0.94225600      0.25907300
C          -1.43188900      0.87672600     -0.39518100
C           0.11904000     -1.66524800      0.29524100
C           0.75499600      2.18959200     -0.16624700
C          -2.29609200      2.13736100     -0.22896600
C          -3.76579700      1.90097000     -0.60057900
H           1.73074800     -0.25350100      0.57874800
H           1.11958300     -0.32220200     -1.07600800
H          -0.19247900      1.00414700      1.35499700
H          -1.98351500      0.02515800      0.04032400
H          -1.32082000      0.65289000     -1.47478600
H          -0.71299700     -1.87479800     -0.39549800
H           0.83836100     -2.49615700      0.19931100
H          -0.28402800     -1.68614700      1.32342200
H           1.76402200      2.18187400      0.27858100
H           0.87212700      2.23161500     -1.26399800
H           0.26464400      3.12107500      0.15771600
H          -2.24232000      2.48774900      0.81884800
H          -1.89047300      2.95362400     -0.85186800
H          -4.22140100      1.13277700      0.04711800
H          -3.86488200      1.55525100     -1.64505000
H          -4.35979100      2.82425100     -0.49277000
