21
b3lypvdz=-274.963815841119 
C           0.76642100     -0.32376200      0.00583400
C           2.20402800     -0.36846800      0.57176400
C           2.21048000     -0.41410700      2.11153100
C          -0.02039300     -1.63263500      0.15208200
C          -1.47268400     -1.51378600     -0.31889400
C           4.14657100      0.74835000     -0.60061600
C           3.00868700      0.81549800      0.09589600
H           0.21658500      0.49650400      0.50680200
H           0.80971200     -0.05128600     -1.06455700
H           2.69765400     -1.28060300      0.18626400
H           1.73398000     -1.32718000      2.50253500
H           3.23944200     -0.37208400      2.50154700
H           1.65974200      0.44726000      2.52940400
H           0.49535000     -2.42536100     -0.42141500
H          -0.00972400     -1.96606700      1.20536100
H          -2.01787500     -0.75365300      0.26562600
H          -2.01503900     -2.46750600     -0.20719700
H          -1.53258400     -1.21458100     -1.38027300
H           4.57837900     -0.21510300     -0.89345400
H           4.69147400      1.64532600     -0.90680000
H           2.60879500      1.80094200      0.37696000
