12
b3lypvdz=-157.108955485673 
C           2.27493300     -0.41931400      0.40813400
C           4.19520000      0.95147600     -0.54313000
C           2.90098700     -1.72176700     -0.08946700
C           3.03780800      0.84747500      0.11663600
H           1.25246300     -0.31020900     -0.00356200
H           2.12346200     -0.47934700      1.50461500
H           4.71319300      0.07885400     -0.95045200
H           4.67182300      1.92252000     -0.70417400
H           3.90110900     -1.88115600      0.34714900
H           2.27364600     -2.58263400      0.19265500
H           3.01103900     -1.72946200     -1.18704800
H           2.56883700      1.76336300      0.50144500
