23
b3lypvdz=-276.186660071985 
C           0.77944000     -0.36596200     -0.02243500
C           0.02932200      0.93772800      0.32797400
C           2.22485900     -0.49312700      0.48912000
C          -1.37033100      0.99023700     -0.32002000
C          -2.29625000     -0.19385500     -0.01990700
C           2.36746000     -0.43189800      2.01338400
C           0.81789400      2.20197300     -0.04734400
H           0.20291500     -1.21930900      0.37757600
H           0.77996700     -0.49037800     -1.12310600
H          -0.12133700      0.95636300      1.42572300
H           2.63166800     -1.45430000      0.12675900
H           2.86168600      0.28460100      0.02989300
H          -1.86215400      1.92122400      0.01669700
H          -1.25198300      1.09181800     -1.41660900
H          -3.30561000     -0.01282100     -0.42437800
H          -2.39596100     -0.36406000      1.06659100
H          -1.92865200     -1.13055800     -0.46922000
H           1.72358200     -1.17963500      2.50838400
H           3.40644800     -0.62922700      2.32555100
H           2.08636800      0.55672100      2.41438900
H           1.75404000      2.29562500      0.52396500
H           1.07788800      2.20897000     -1.12144400
H           0.21774100      3.10606900      0.15465900
