20
b3lypvdz=-236.902679521569 
C           0.79300300     -0.37794000     -0.03199700
C           0.01912400      0.90114400      0.31864900
C           2.23386500     -0.41545200      0.50033600
C          -1.38685400      1.00295800     -0.29765100
C          -2.32030300     -0.17374000      0.01428800
C           2.33905700     -0.49225900      2.02798900
H           0.25105200     -1.25870200      0.36059200
H           0.81012200     -0.49821200     -1.13211100
H           0.61180500      1.77562900     -0.01325400
H          -0.06366600      0.99176000      1.41859500
H           2.75343500     -1.28497000      0.05955200
H           2.78246300      0.47451100      0.13524600
H          -1.85523700      1.93779200      0.05978800
H          -1.29697900      1.11004600     -1.39567200
H          -3.33252600      0.00585100     -0.38424000
H          -2.41237700     -0.34210000      1.10214500
H          -1.95636200     -1.11412900     -0.43234200
H           1.77641200     -1.35712100      2.42289000
H           3.38652400     -0.60240300      2.35399300
H           1.93454200      0.40763700      2.52090600
