13
b3lypvdz=-232.31728054883 
C           2.19909900     -0.44684400      0.52222200
O           6.07850300     -0.41852000     -1.44945900
C           2.90765100     -1.62825600     -0.15319700
C           4.44563300     -1.57974200     -0.10786000
C           5.08482700     -0.37214800     -0.75981500
H           1.11176800     -0.62135500      0.56506700
H           2.55518800     -0.30156000      1.55674900
H           2.35585000      0.49895500     -0.02000900
H           2.58689200     -2.56349200      0.33557000
H           2.57661900     -1.70836900     -1.20390300
H           4.77496000     -1.56915300      0.95072900
H           4.88916800     -2.47402800     -0.57295200
H           4.59204300      0.61401100     -0.54874100
