20
b3lypvdz=-236.904799342067 
C           0.76983900     -0.40416500      0.01855600
C          -0.04717700      0.87305800      0.25107700
C           2.22572700     -0.27432100      0.47621800
C          -1.43740800      0.91515200     -0.41136100
C          -2.33305800     -0.27211600     -0.03092800
C          -2.12879500      2.25085600     -0.10572100
H           0.29298300     -1.25255200      0.54056600
H           0.74731200     -0.66072400     -1.05792400
H           0.53223500      1.73599400     -0.12968300
H          -0.15555400      1.04472100      1.34109100
H           2.29316200     -0.05552000      1.55684900
H           2.79719000     -1.19819900      0.28578100
H           2.73775200      0.54568600     -0.05546100
H          -1.27705800      0.86477900     -1.50674100
H          -3.32012300     -0.18885600     -0.51535400
H          -2.49878100     -0.32189200      1.06051500
H          -1.89525700     -1.23260800     -0.34644800
H          -3.08432600      2.34435500     -0.64724200
H          -2.34512400      2.34515500      0.97386900
H          -1.49374000      3.10619800     -0.39266000
