19
b3lypvdz=-310.888947264509 
C           0.76974300     -0.42521000      0.05377000
C           0.08666600      0.93892100      0.20123600
C          -1.28702500      1.05491700     -0.47790100
C          -2.32312900      0.01964600     -0.02138500
C          -3.72788200      0.29721400     -0.58242700
O          -5.73543600     -0.72070300      0.29635800
C          -4.69438000     -0.83104200     -0.30836300
H           1.76975700     -0.41371700      0.51628300
H           0.19497700     -1.22587600      0.54689900
H           0.89346100     -0.70546400     -1.00688200
H           0.74387800      1.72121700     -0.21783000
H          -0.01964400      1.17700100      1.27611600
H          -1.68895300      2.06663700     -0.28516900
H          -1.16411700      0.97550900     -1.57511000
H          -2.37306400      0.00635000      1.08299300
H          -2.00225800     -0.99186400     -0.33041800
H          -4.15506000      1.22405600     -0.16810700
H          -3.66540300      0.41376200     -1.68295000
H          -4.36883000     -1.82845400     -0.71671300
