23
b3lypvdz=-276.187864069954 
C           0.84226900     -0.32046700     -0.05464900
C           0.04760700      0.96641100      0.25782400
C           2.26277700     -0.39487700      0.52220400
C          -1.35346500      0.86253200     -0.38463000
C           0.79798100      2.24227900     -0.15449300
C          -2.27754800      2.07623800     -0.19549700
C          -3.72886600      1.78982000     -0.60472800
H           0.26018500     -1.18084500      0.32484900
H           0.89338000     -0.44900900     -1.15303200
H          -0.09507700      1.00932400      1.35622600
H           2.26887300     -0.21394700      1.61193500
H           2.69994600     -1.39262500      0.34677900
H           2.93813900      0.33972200      0.05455000
H          -1.85342700     -0.03138600      0.03353300
H          -1.23859200      0.66543800     -1.46886600
H           1.76850200      2.32128400      0.36060000
H           0.98773600      2.26583100     -1.24301300
H           0.22666500      3.14694700      0.10891100
H          -2.25763000      2.39882000      0.86240600
H          -1.89813200      2.92685200     -0.78810300
H          -4.16290700      0.97904500      0.00460900
H          -3.79272400      1.47992900     -1.66324700
H          -4.36439300      2.68258500     -0.47626600
