17
b3lypvdz=-197.620010119435 
C           0.08964200      0.94566100      0.32043000
C          -1.33333500      1.11032700     -0.22354400
C          -2.28428400     -0.07387000      0.04088700
C          -3.58781800      0.09110000     -0.75378400
C          -2.58290800     -0.26339000      1.53460300
H           0.54612100      0.00670000     -0.03907500
H           0.73845200      1.77199000     -0.01453800
H           0.11974300      0.93040700      1.42277100
H          -1.78841600      2.02904300      0.19560900
H          -1.27808000      1.27206200     -1.31557900
H          -1.77924800     -0.98929800     -0.32870300
H          -4.14405100      0.98328600     -0.41319400
H          -4.25194300     -0.78019300     -0.62595500
H          -3.39294000      0.21025800     -1.83294400
H          -3.04965600      0.64585700      1.95628400
H          -3.28653200     -1.09672500      1.69880500
H          -1.67534600     -0.47661500      2.12092800
