20
b3lypvdz=-236.904000665571 
C           0.82258600     -0.41388200      0.03897900
C           0.07333300      0.90695200      0.26780700
C           2.27009300     -0.37316600      0.53808300
C          -1.30547700      1.01813500     -0.40304100
C          -2.29198700     -0.11919400     -0.10243200
C          -3.68707000      0.12209300     -0.68813100
H           0.28372600     -1.23637600      0.54253900
H           0.81315600     -0.66224000     -1.03983600
H           0.70253400      1.73975500     -0.09978600
H          -0.03024700      1.07144200      1.35838400
H           2.31956000     -0.15245200      1.61957900
H           2.78828600     -1.33214500      0.36924200
H           2.84918300      0.40962600      0.01930100
H          -1.76437100      1.97557200     -0.09158100
H          -1.17243100      1.09146700     -1.50002800
H          -2.37238600     -0.25777600      0.99282400
H          -1.88975000     -1.06917500     -0.49820500
H          -4.12708600      1.05514100     -0.29488100
H          -4.38058400     -0.69942100     -0.44286600
H          -3.65566500      0.21194500     -1.78875000
