20
b3lypvdz=-236.903437299009 
C           0.84295400     -0.30200200     -0.12954800
C           0.06962700      0.96596500      0.27619600
C           2.26652800     -0.46972000      0.43568900
C           2.29485500     -0.44685500      1.96951300
C           0.77203900      2.29884200     -0.01456000
C           2.89855500     -1.76454000     -0.09562600
H           0.24389800     -1.18170200      0.17706000
H           0.90090100     -0.34898800     -1.23426800
H          -0.89922300      0.94883400     -0.25367600
H          -0.18050600      0.92257800      1.35219500
H           2.88495900      0.37386700      0.07065300
H           1.63639200     -1.22863900      2.38871400
H           3.31364200     -0.63371100      2.34943000
H           1.95986600      0.51996800      2.37928200
H           1.66517900      2.44270600      0.61522000
H           1.09484700      2.37046800     -1.06847600
H           0.09358100      3.14567000      0.18578100
H           3.93589400     -1.88075500      0.26116200
H           2.32939900     -2.64696800      0.24794400
H           2.91561300     -1.78481600     -1.19848500
