23
b3lypvdz=-276.186551148561 
C           0.82490400     -0.30755300     -0.13426400
C           0.05034600      0.95409500      0.28665600
C           2.25844000     -0.45258300      0.41033300
C           2.29311200     -0.42140600      1.94444700
C           0.76279400      2.28684500      0.02104700
C           2.92928200     -1.72898900     -0.13622600
C           4.45809800     -1.70966700     -0.07422300
H           0.23872000     -1.19501500      0.17523300
H           0.86992800     -0.34947400     -1.23940400
H          -0.91449400      0.94908700     -0.25006900
H          -0.20763300      0.89626800      1.35978500
H           2.84977700      0.40585500      0.03238500
H           1.60789200     -1.18082000      2.36284900
H           3.30014100     -0.63597800      2.33600700
H           1.98325700      0.55460500      2.35039900
H           1.65181000      2.41621200      0.65920300
H           1.09953700      2.37205700     -1.02749900
H           0.08993600      3.13641800      0.22617900
H           2.53927000     -2.60202800      0.42202100
H           2.61732900     -1.87939100     -1.18533400
H           4.86895600     -0.88938100     -0.68802800
H           4.83333800     -1.56803300      0.95281600
H           4.89086100     -2.64822600     -0.45741200
