16
b3lypvdz=-271.604838764308 
C           0.05132700      0.87799100      0.34222600
C          -1.28304800      1.05733800     -0.38012800
C          -2.33087400      0.00563600     -0.00046700
C          -3.66806900      0.22554300     -0.73240500
O          -5.62416600     -0.49756900      0.46600500
C          -4.71425200     -0.76473500     -0.28523400
H           0.47995600     -0.12085100      0.15130100
H           0.78856000      1.62461700      0.00716600
H          -0.06160300      0.98924300      1.43428800
H          -1.69209800      2.06043200     -0.15978800
H          -1.12174200      1.02684600     -1.47335700
H          -2.51167100      0.03651300      1.08908600
H          -1.94279100     -1.00477700     -0.22802300
H          -4.04985500      1.23801600     -0.52381600
H          -3.50863300      0.11188900     -1.82050500
H          -4.58454200     -1.80763100     -0.68474800
