23
b3lypvdz=-276.188692371403 
C           0.81880300     -0.35773400     -0.12770200
C           0.06346500      0.92116700      0.25412000
C           2.27616700     -0.37070900      0.34623000
C          -1.34617000      1.06986900     -0.34267300
C          -2.26382400     -0.15315000     -0.20278000
C          -3.70748400      0.12831800     -0.62735800
C           2.97560100     -1.70846300      0.09662800
H           0.29826300     -1.23266300      0.30433500
H           0.79141700     -0.50684600     -1.22554800
H           0.66335000      1.80087100     -0.04706600
H           0.00106200      0.96961200      1.35872800
H           2.31146600     -0.13430800      1.42744600
H           2.82994700      0.44577800     -0.15351900
H          -1.83303000      1.93920800      0.13719100
H          -1.26704600      1.32694400     -1.41683300
H          -2.25493500     -0.51287300      0.84391500
H          -1.85662800     -0.98385200     -0.80730700
H          -4.16373700      0.91109100      0.00257400
H          -4.33922500     -0.77203400     -0.54658200
H          -3.76119800      0.48162500     -1.67288500
H           4.01328400     -1.70426200      0.46842500
H           2.44679100     -2.53298900      0.60569400
H           3.00386100     -1.95400000     -0.97963200
