20
b3lypvdz=-236.902637961961 
C           0.78311700     -0.30027100     -0.01590100
C          -0.01811200      0.98442800      0.26044500
C          -1.42106900      0.95068300     -0.40160000
C          -2.25321900     -0.25816400      0.05946400
C           0.80340600      2.21259900     -0.16883300
C          -2.21144100      2.24949200     -0.16653200
H           1.78984500     -0.23707000      0.42904500
H           0.29812700     -1.19140500      0.41078200
H           0.90430200     -0.46632200     -1.10137400
H          -0.17131700      1.05295800      1.35605100
H          -1.26567000      0.84909300     -1.49476800
H          -3.25921300     -0.23286500     -0.39047300
H          -2.37696200     -0.26213500      1.15769600
H          -1.79220400     -1.21405200     -0.23233100
H           1.81374700      2.17777400      0.27080800
H           0.91589800      2.25326900     -1.26730800
H           0.34114200      3.15597600      0.15966500
H          -3.22291600      2.17453900     -0.59901000
H          -2.32248000      2.45904500      0.91276000
H          -1.72468100      3.11962800     -0.63238600
