23
b3lypvdz=-276.185285432524 
C           0.01144200      1.05734700      0.27998100
C          -1.38887800      0.96913900     -0.36352800
C          -2.21006200     -0.27246300      0.09066800
C          -2.60723800     -0.26430500      1.57737400
C           0.82952500      2.28901000     -0.13107800
C          -1.53079500     -1.60440600     -0.26464900
C          -2.19745000      2.26741200     -0.19129800
H           0.58347700      0.15235200      0.00927600
H          -0.08042600      1.04333200      1.38170900
H          -1.22825400      0.83863500     -1.45300300
H          -3.14906200     -0.22361200     -0.49340100
H          -3.09521100      0.67653200      1.87796800
H          -3.31705500     -1.08102200      1.79103700
H          -1.73284600     -0.41521300      2.23310600
H           1.85296400      2.23196800      0.27398800
H           0.90829900      2.37641500     -1.22924000
H           0.38283100      3.22298800      0.24576700
H          -0.64135400     -1.79051400      0.36040700
H          -2.22488700     -2.44657400     -0.10199900
H          -1.20935400     -1.63082000     -1.31995600
H          -3.21568500      2.15127600     -0.59928500
H          -2.29193100      2.56176600      0.86810000
H          -1.72854900      3.10845900     -0.72474500
