13
b3lypvdz=-232.333287444378 
C          -3.60991000      0.17264400     -0.86862300
C          -5.01783800     -2.00709700     -0.91933900
O          -5.78203400      0.00305400      0.12781000
C          -3.62675600      1.65808800     -0.51549500
C          -4.89373200     -0.55481400     -0.48568100
H          -2.77446200     -0.34984500     -0.36460400
H          -3.43381200      0.01240400     -1.94968100
H          -4.07270400     -2.55810400     -0.78309300
H          -5.82682400     -2.49455200     -0.35953500
H          -5.26749900     -2.04310700     -1.99554000
H          -2.67243700      2.13983500     -0.78120300
H          -4.43488000      2.18230500     -1.04813800
H          -3.80631200      1.80249000      0.56102100
