17
b3lypvdz=-197.618423045178 
C           0.78404800     -0.28201400      0.00943400
C           2.24794100     -0.45490000      0.42629400
C          -2.31171000     -0.22995700      0.03528300
C          -0.07506200     -1.51718900      0.31344400
C          -1.49960300     -1.49404600     -0.26839300
H           0.35730800      0.59779800      0.52353100
H           0.73478400     -0.05145300     -1.07206800
H           2.33751000     -0.66709900      1.50672000
H           2.71935500     -1.29490000     -0.11176200
H           2.84309100      0.44891300      0.21354300
H          -1.86717600      0.66219500     -0.43592000
H          -3.34117800     -0.32104300     -0.34851300
H          -2.37413800     -0.03277300      1.12006000
H           0.44293900     -2.41356300     -0.07658800
H          -0.12433100     -1.65315100      1.41145900
H          -2.04465600     -2.37550900      0.11496100
H          -1.44622200     -1.62880700     -1.36528400
