17
b3lypvdz=-197.618354018619 
C           0.76673100     -0.32178700     -0.08582600
C           0.04834000      0.97473600      0.32120400
C           2.18915200     -0.41830200      0.50758900
C           2.27540400     -0.51754200      2.03677300
C          -0.08442100     -1.56184700      0.22795700
H           0.89067100     -0.28701700     -1.18506600
H          -0.91009300      1.07652500     -0.21439700
H           0.66080200      1.86128700      0.08120500
H          -0.17376700      0.99994300      1.40208400
H           2.69379600     -1.29687000      0.06486200
H           2.76922000      0.46213500      0.17364300
H           1.77399600     -1.42092600      2.42103500
H           3.32858200     -0.56632300      2.35913400
H           1.82067600      0.35449800      2.53474100
H          -1.03996600     -1.53206700     -0.32125100
H           0.43940000     -2.48809700     -0.06617000
H          -0.32372300     -1.63574700      1.30268300
