20
b3lypvdz=-236.902565252932 
C           0.78240700     -0.35534800     -0.08394000
C           2.23122000     -0.46558200      0.42758800
C          -2.32277000     -0.20084700      0.11643500
C          -0.11309200     -1.55618100      0.25747200
C           3.02665100     -1.65140100     -0.13195700
C          -1.55487300     -1.46823900     -0.28064600
H           0.33968200      0.56021100      0.34505900
H           0.79619400     -0.20723200     -1.18163400
H           2.22372000     -0.52152400      1.53294800
H           2.76195200      0.46998400      0.17229100
H          -1.88876800      0.70119700     -0.34421000
H          -3.37356600     -0.26135900     -0.21316200
H          -2.32122600     -0.05490300      1.21129100
H           0.34069000     -2.47959700     -0.14248700
H          -0.14402200     -1.67964500      1.35790500
H           4.07650200     -1.61129200      0.20358200
H           2.61514500     -2.61751000      0.20346300
H           3.02616100     -1.64775900     -1.23650300
H          -2.11296700     -2.35238300      0.07732900
H          -1.53664100     -1.54678900     -1.38452400
