20
b3lypvdz=-236.902790959044 
C           0.81746600     -0.28014300      0.03683100
C           2.29210900     -0.48582000      0.39859500
C          -2.33396800     -0.26985800      0.09321800
C          -2.68482000     -0.15950300      1.57957400
C          -0.04103300     -1.52471600      0.30364900
C          -1.46622300     -1.48374400     -0.27744200
H           0.41559200      0.57781100      0.60561200
H           0.73988000      0.00318400     -1.03010800
H           2.41203700     -0.76079000      1.46160400
H           2.73990400     -1.29665500     -0.20089200
H           2.88756400      0.42498800      0.21920900
H          -1.83327500      0.65828300     -0.23887800
H          -3.26797700     -0.32746900     -0.49316300
H          -3.36639000      0.68643300      1.76894700
H          -3.18895000     -1.07397100      1.93972300
H          -1.78955800     -0.00764700      2.20540100
H           0.47180900     -2.40388800     -0.12951900
H          -0.07458300     -1.70931800      1.39401300
H          -1.99596900     -2.40314700      0.03730300
H          -1.39811700     -1.53793000     -1.37987900
