19
b3lypvdz=-310.901209450671 
C           0.01805600      0.86339500      0.38732800
C          -1.29972100      1.07130400     -0.36258100
C          -2.35304500     -0.00244000     -0.06084000
C          -3.67199400      0.22483900     -0.82648600
C          -4.96271900     -2.03473100     -0.96121900
O          -5.50382300     -0.30785900      0.60611900
C          -4.79514700     -0.67128100     -0.31181500
H           0.47248500     -0.11077700      0.13580600
H           0.75076300      1.64625900      0.13212600
H          -0.13221700      0.89035900      1.48059700
H          -1.72042700      2.06017400     -0.10185500
H          -1.10418500      1.09830400     -1.45089000
H          -2.56931500     -0.00870300      1.02263700
H          -1.94423800     -1.00008800     -0.30916700
H          -4.00186200      1.26527200     -0.67028000
H          -3.50667100      0.06680100     -1.90714300
H          -4.01372200     -2.59829800     -0.92120000
H          -5.75094000     -2.60005600     -0.44668800
H          -5.22377800     -1.92207400     -2.02825000
