20
b3lypvdz=-236.901736494398 
C          -1.45067900      1.04020300     -0.25830000
C          -2.21596800     -0.23137700      0.16435900
C          -2.56063400     -0.22820100      1.66136700
C          -0.03274800     -1.67270400      0.19556300
C          -1.48856600     -1.52596300     -0.26606400
C          -2.31319800      2.30477500     -0.31891700
H          -0.60356000      1.20567700      0.43273100
H          -0.99636200      0.87168600     -1.25238300
H          -3.17314000     -0.22477000     -0.39229300
H          -3.18670200      0.63560500      1.93710700
H          -3.11991600     -1.13654500      1.94354400
H          -1.65265500     -0.18681700      2.28762400
H           0.60576600     -0.86657300     -0.20195200
H           0.39512800     -2.62423000     -0.16104500
H           0.06220100     -1.65919400      1.29479700
H          -2.07524800     -2.38919500      0.09838500
H          -1.52045600     -1.58689900     -1.36992900
H          -3.15053000      2.17938100     -1.02743000
H          -2.75411700      2.55894300      0.65978200
H          -1.72481600      3.17520000     -0.65294900
