23
b3lypvdz=-276.189814135672 
C           0.74365200     -0.39409100     -0.11279600
C          -0.04223600      0.88794300      0.18070300
C           2.22153300     -0.31436000      0.28550300
C          -1.46124400      0.96444400     -0.41640000
C          -2.32026400     -0.27065400     -0.10999200
C           2.97147400     -1.63017200      0.06622700
C          -2.15567700      2.25405900      0.03988000
H           0.27653000     -1.24470800      0.41686600
H           0.67375500     -0.64044900     -1.19130500
H           0.53009800      1.75643400     -0.19873700
H          -0.10234300      1.02934100      1.27900000
H           2.30077700     -0.01692600      1.34912400
H           2.70799000      0.49712000     -0.28724600
H          -1.34934300      1.01516400     -1.51807100
H          -3.33412700     -0.15790600     -0.52937300
H          -2.42276800     -0.43576200      0.97798200
H          -1.88852000     -1.18565500     -0.54598800
H           4.02690300     -1.55841700      0.37666600
H           2.51175700     -2.45035200      0.64460500
H           2.95209300     -1.92992400     -0.99671800
H          -3.13732900      2.38012900     -0.44587600
H          -2.32228400      2.24507100      1.13260400
H          -1.54562900      3.14337200     -0.19365900
