9
b3lypvdz=-117.824373008584 
     C      2.28152500      2.17619800      0.39914300
     C      4.21135700      0.83768600     -0.50962400
     C      3.01526600      0.90637800      0.08113400
     H      2.86609700      3.06339500      0.10848800
     H      2.05341900      2.24841800      1.47781700
     H      4.75180200      1.74307500     -0.80600900
     H      1.31157700      2.21670800     -0.12722700
     H      4.69440700     -0.11922300     -0.72410700
     H      2.50904900     -0.02713500      0.36128600
