14
b3lypvdz=-158.336069459603 
C          -2.23771800     -0.18000300      0.11010300
C          -3.49516800      0.09099600     -0.72747400
C          -1.55789200     -1.48815500     -0.31850600
C          -2.56281700     -0.20003800      1.61092400
H          -1.52554400      0.64773200     -0.07448900
H          -3.97675400      1.03920400     -0.43234000
H          -4.23938300     -0.71507900     -0.59667300
H          -3.25318700      0.15538500     -1.80237400
H          -0.63377200     -1.66679800      0.25630300
H          -2.22758800     -2.35126800     -0.15386900
H          -1.28899700     -1.46908100     -1.38855900
H          -3.00447700      0.75585800      1.94180100
H          -3.28712400     -0.99922000      1.84764400
H          -1.65607900     -0.37993400      2.21360800
