17
b3lypvdz=-197.620668253492 
C           0.89380400     -0.25890600     -0.00110900
C           0.00809200      0.97372100      0.18885700
C          -1.41379400      0.79730000     -0.35460400
C          -2.31085700      2.02152500     -0.14527400
C          -3.74009900      1.83638400     -0.66211900
H           1.89007200     -0.11599200      0.44807700
H           0.44265100     -1.14947200      0.47057600
H           1.03790800     -0.49307000     -1.07032000
H           0.47731400      1.84860500     -0.29843800
H          -0.04403200      1.22515600      1.26567100
H          -1.88209800     -0.08327700      0.12667500
H          -1.36498100      0.55536500     -1.43498000
H          -2.33536200      2.26784200      0.93339700
H          -1.84902700      2.89667800     -0.64010600
H          -4.23177000      0.97385600     -0.18050500
H          -3.75585800      1.65364300     -1.75148900
H          -4.36246400      2.72514300     -0.46441000
