21
b3lypvdz=-274.986897522632 
C           0.87577400     -0.26820100      0.09467900
C          -0.01329100      0.97046000      0.24418700
C          -1.34785500      0.90127500     -0.50449500
C          -2.28676400     -0.25968400     -0.11937400
C          -3.65342300      0.16303500     -0.68827000
C          -2.23247600      2.14989600     -0.27685000
C          -3.69982200      1.70713700     -0.53258100
H           1.82627500     -0.14261600      0.63778800
H           0.38352100     -1.16900900      0.49785800
H           1.11902000     -0.46913300     -0.96296400
H           0.54004400      1.86139000     -0.10576800
H          -0.21716500      1.14569800      1.31825600
H          -1.13989400      0.80863900     -1.58916800
H          -2.33938900     -0.33783500      0.98384600
H          -1.95047700     -1.23687800     -0.50047700
H          -4.49632400     -0.34489600     -0.19461100
H          -3.70392200     -0.10826500     -1.75741200
H          -2.11685700      2.47985800      0.77102300
H          -1.92279100      2.99864400     -0.90686100
H          -4.12369100      2.18562900     -1.42923100
H          -4.34659500      2.00275600      0.30922400
