19
b3lypvdz=-310.899231677123 
C          -2.26254100     -0.20230800      0.12562900
C          -3.54137500      0.10402600     -0.70623600
C          -2.50201800     -0.10220700      1.63733900
C          -5.06571800     -1.96542400     -1.14215000
O          -5.47401200     -0.38765800      0.60478700
C          -1.61759100     -1.54774000     -0.23873200
C          -4.76496500     -0.72366100     -0.32637100
H          -1.54494700      0.58937200     -0.15938700
H          -3.81965100      1.15722500     -0.53528300
H          -3.30731500     -0.02380300     -1.77768100
H          -2.90865200      0.88107800      1.92380500
H          -3.22113100     -0.86129500      1.98347900
H          -1.55831900     -0.25903200      2.18624000
H          -4.17832500     -2.61887100     -1.19800500
H          -5.90886300     -2.51161100     -0.69821900
H          -5.31682400     -1.67893000     -2.17869400
H          -0.64471900     -1.65688200      0.26773700
H          -2.24246300     -2.40066200      0.07663200
H          -1.43897200     -1.63531600     -1.32399000
