15
b3lypvdz=-196.398109665065 
C           0.75218600     -0.38508900     -0.07591500
C           2.20628900     -0.35495900      0.42740700
C           2.33218200      2.22808500      0.42038600
C           4.18847400      0.84118100     -0.48678600
C           2.97698800      0.90411700      0.08216600
H           0.13917500      0.40405600      0.38956800
H           0.27818500     -1.35083900      0.16754700
H           0.70363600     -0.25044300     -1.17047400
H           2.19917800     -0.47064000      1.53034500
H           2.74956600     -1.22809400      0.02924800
H           1.43991300      2.40997900     -0.20350100
H           3.02872500      3.06553500      0.25999200
H           1.99873500      2.25354900      1.47440400
H           4.65102200     -0.11722400     -0.74168500
H           4.76314500      1.74448600     -0.71330200
