15
b3lypvdz=-196.398951656805 
C           2.28606000     -0.39256500      0.40000000
C           2.89915900     -1.70478900     -0.09852600
C           2.29566200      2.15780000      0.42400100
C           4.22202200      0.91479100     -0.53884600
C           3.02067500      0.88498800      0.05142600
H           1.25111900     -0.30859100      0.01419100
H           2.18476600     -0.43580700      1.50317200
H           3.90454100     -1.87199500      0.32301800
H           2.26810700     -2.55753100      0.20198300
H           2.98449500     -1.71833000     -1.19820100
H           1.32897300      2.22836100     -0.10675500
H           2.88730600      3.05248000      0.17594400
H           2.07010700      2.18386800      1.50660800
H           4.75914900      0.00602200     -0.82005100
H           4.71496100      1.86469800     -0.76626500
