17
b3lypvdz=-197.618970023788 
C           0.77282200     -0.38071400     -0.03452700
C           2.20183300     -0.46147100      0.52195600
C           2.27420100     -0.43904500      2.05238400
C          -0.06328000     -1.65307700      0.15405700
C          -1.51908900     -1.48523200     -0.28998800
H           0.25183500      0.47003200      0.44632500
H           0.80940700     -0.13955700     -1.11344800
H           2.69728300     -1.37267200      0.13606100
H           2.78983800      0.38501200      0.12428000
H           1.79382900     -1.31998500      2.50992800
H           3.31711400     -0.41275200      2.40772800
H           1.76343800      0.45189900      2.45919500
H           0.40972000     -2.47875400     -0.41067500
H          -0.04164800     -1.96354100      1.21490700
H          -2.01777400     -0.68673900      0.28556500
H          -2.10188100     -2.41012100     -0.14481100
H          -1.58834800     -1.20818200     -1.35723700
