14
b3lypvdz=-158.333668495024 
C           4.44865300     -1.63737900     -0.10145100
C           2.23856500     -0.45861900      0.50756100
C           2.91758400     -1.65454500     -0.18138300
C           2.27655200     -0.51294200      2.03930600
H           4.85768600     -0.71655100     -0.55297100
H           4.80768900     -1.68773600      0.94012500
H           4.88590500     -2.49217800     -0.64309500
H           1.18380200     -0.40896100      0.18195800
H           2.71156700      0.47793200      0.15749100
H           2.53357100     -2.59333800      0.25956500
H           2.61941400     -1.67124000     -1.24530500
H           1.78897900     -1.42974400      2.41458700
H           3.30893300     -0.50002300      2.42701700
H           1.74680000      0.34662200      2.48189700
