15
b3lypvdz=-196.394266232873 
C           2.34371000     -0.43280700      0.49956200
C           2.19000700     -0.54857200      2.02848500
C           2.94985700     -1.70888800     -0.09167000
C           4.18120100      0.95252300     -0.61291700
C           3.08351000      0.83698300      0.14088500
H           1.32058500     -0.31741900      0.08676800
H           1.52286800     -1.38376900      2.29654100
H           3.16766100     -0.72371900      2.50965000
H           1.76183900      0.37041600      2.46177300
H           3.97510500     -1.87168900      0.28308600
H           2.34858700     -2.58576100      0.19731300
H           2.99255800     -1.67407300     -1.19195800
H           4.67265600      0.08741300     -1.06515300
H           4.63130300      1.92850200     -0.81430800
H           2.64015200      1.74925900      0.56394300
