20
b3lypvdz=-236.902816057298 
C           0.72576800     -0.38769500     -0.20925500
C           0.03039300      0.91059000      0.25112800
C           2.16649900     -0.40826200      0.34605000
C          -1.40891700      1.11255300     -0.23093600
C          -0.06522400     -1.65302200      0.15448600
C           2.99749000     -1.64867800      0.01066200
H           0.79421300     -0.35408800     -1.31549400
H           0.64674300      1.76413300     -0.08747900
H           0.05278400      0.94899600      1.35762200
H           2.12325900     -0.28476300      1.44583400
H           2.68885900      0.48936400     -0.03234200
H          -2.09231700      0.34524300      0.16726200
H          -1.79794700      2.08998700      0.09862800
H          -1.48009600      1.07923100     -1.33241700
H          -1.07560500     -1.63771400     -0.28255900
H           0.43164200     -2.55777100     -0.22840400
H          -0.17186100     -1.76701500      1.24830700
H           4.03122200     -1.54015300      0.37704500
H           2.58461100     -2.55881200      0.47418500
H           3.04438100     -1.82642200     -1.07792300
