20
b3lypvdz=-236.902669302589 
C           0.75036200     -0.34849900     -0.07986800
C           0.06747600      0.96635800      0.33185900
C           2.19487300     -0.45712600      0.47983000
C           2.26440400     -0.52681800      2.01492800
C          -0.14038300     -1.55594800      0.25210300
C           2.96667200     -1.63217900     -0.14425400
H           0.85349700     -0.31800400     -1.18243100
H          -0.88584500      1.09615500     -0.20689200
H           0.70451700      1.83726900      0.09883200
H          -0.15951500      0.99247100      1.41174800
H           2.71484800      0.46972000      0.16863400
H           1.78450800     -1.44054600      2.40441100
H           3.31423200     -0.54059500      2.35238700
H           1.77780500      0.33689200      2.49547900
H          -1.12611900     -1.45087000     -0.23069600
H           0.29809800     -2.50071000     -0.10726400
H          -0.31411300     -1.65384100      1.33772400
H           4.02978200     -1.60282700      0.14875100
H           2.56340900     -2.60417100      0.18677100
H           2.92249200     -1.60353000     -1.24705100
