19
b3lypvdz=-310.903928286731 
C          -1.35227100      1.12306200     -0.42194800
C          -2.17518100     -0.09313400      0.02414200
C          -3.38411200     -0.32432300     -0.89575500
C          -5.58781200     -1.64044300     -1.23476000
O          -4.50782000     -1.48077900      0.89173800
C          -1.31034600     -1.35826400      0.11782600
C          -4.49067700     -1.18446800     -0.28786800
H          -0.48418200      1.27074700      0.24102600
H          -1.95599900      2.04674400     -0.39321400
H          -0.96457100      1.00774900     -1.45029900
H          -2.57868000      0.11161200      1.03035000
H          -3.85940600      0.64120300     -1.16104400
H          -3.07554000     -0.76587200     -1.86236800
H          -5.15751200     -2.29068200     -2.01676500
H          -6.35682800     -2.19289300     -0.67794700
H          -6.04384500     -0.78018300     -1.75488400
H          -0.45625800     -1.20912200      0.79868100
H          -1.89685700     -2.20891900      0.49937800
H          -0.89950300     -1.63723600     -0.87008800
