20
b3lypvdz=-236.902555333248 
C           0.73676000     -0.32116200     -0.03898200
C          -0.04470400      0.97484600      0.26925400
C          -1.44316500      0.98508400     -0.38122800
C           0.01047900     -1.63887600      0.26814500
C           0.79834200      2.19468400     -0.13774400
C          -2.23583000      2.28772500     -0.20099900
H           1.67985600     -0.29384900      0.53577900
H           1.03185000     -0.31421500     -1.10603500
H          -0.18927400      1.02170000      1.36760800
H          -2.03742900      0.15726400      0.04261900
H          -1.34224200      0.77020500     -1.46291300
H          -0.84850400     -1.80457100     -0.40135100
H           0.69474900     -2.49443000      0.13765700
H          -0.36321900     -1.66318000      1.30712500
H           1.81269900      2.13080500      0.29021600
H           0.90025900      2.25966600     -1.23595400
H           0.35579900      3.13841000      0.21721600
H          -3.26271400      2.17311600     -0.58600600
H          -2.30600900      2.57310400      0.86342600
H          -1.77570300      3.12787400     -0.74533200
