20
b3lypvdz=-236.903291409305 
C          -1.32926100      1.08490200     -0.26917900
C          -2.22198900     -0.12278900      0.07188500
C          -3.52689500     -0.02842200     -0.74175900
C          -2.57053700     -0.09282800      1.57423100
C          -0.08901500     -1.66278900      0.20631000
C          -1.52741800     -1.46660500     -0.28652500
H          -0.42098400      1.11849400      0.35236500
H          -1.87954800      2.02635400     -0.09920800
H          -1.01120400      1.07028500     -1.32609700
H          -4.09369700      0.88353200     -0.48702800
H          -4.18308300     -0.89314700     -0.54614700
H          -3.31659900     -0.00465100     -1.82510200
H          -3.03075700      0.87006700      1.85523500
H          -3.29231000     -0.88640400      1.83022000
H          -1.67887800     -0.23173300      2.20696000
H           0.60406200     -0.93750500     -0.24946300
H           0.27486600     -2.66807200     -0.06342400
H          -0.00022400     -1.56485200      1.30153600
H          -2.15808300     -2.28652100      0.10511400
H          -1.54044400     -1.57901600     -1.38692400
