23
b3lypvdz=-276.185619264421 
C           0.74345600     -0.34967800     -0.07974500
C           0.08150100      0.97515500      0.34101000
C           2.19128800     -0.46191700      0.48010000
C           2.26202400     -0.51884600      2.01589400
C          -0.13502500     -1.57824900      0.24228200
C           2.97545000     -1.63277900     -0.13630300
C          -1.56762100     -1.51356200     -0.30845900
H           0.84736800     -0.31156400     -1.18303300
H          -0.81968000      1.18227100     -0.25682900
H           0.77262200      1.82261500      0.19058000
H          -0.21917500      0.96967500      1.40323500
H           2.70856900      0.46544100      0.16592400
H           1.80693200     -1.44172400      2.41347600
H           3.31140800     -0.50154300      2.35455100
H           1.75123000      0.33502500      2.48835900
H           0.35294300     -2.47939200     -0.16681200
H          -0.18549900     -1.72459400      1.33704200
H           4.03724300     -1.58941900      0.16038100
H           2.58441200     -2.60847300      0.19801100
H           2.93516100     -1.60919200     -1.23925300
H          -2.16197200     -0.72433700      0.17895600
H          -2.09263700     -2.46857400     -0.13585700
H          -1.57529700     -1.31943900     -1.39600800
