13
b3lypvdz=-232.319441050459 
C          -2.33481000     -0.26196600      0.10102100
C          -3.59336100      0.20344600     -0.66367900
C          -2.47861100     -0.16313600      1.62108600
O          -5.80397500     -0.35696900      0.14702500
C          -4.77661900     -0.69590800     -0.39352400
H          -1.48030800      0.34637100     -0.24076100
H          -2.09956400     -1.30345300     -0.18824500
H          -3.86791300      1.23556200     -0.39024200
H          -3.38272100      0.16426600     -1.74957900
H          -2.68022700      0.87516500      1.93652800
H          -3.31081800     -0.78303600      1.99420600
H          -1.56184600     -0.50007100      2.13188900
H          -4.62802700     -1.76097300     -0.72712500
