23
b3lypvdz=-276.189721304102 
C           0.09869300      0.99816300      0.18413900
C          -1.31084600      1.04296300     -0.41807700
C          -2.25965200     -0.10371300     -0.01169700
C          -3.57970700     -0.00871800     -0.78907300
C           0.89456900      2.29209500     -0.02995200
C          -1.63761000     -1.49804100     -0.17689900
C           2.35394000      2.18795900      0.42306400
H           0.66225800      0.15457600     -0.25485200
H           0.03797300      0.78949600      1.27020600
H          -1.79311500      1.99724000     -0.13169800
H          -1.22558200      1.06884900     -1.52252400
H          -2.49151800      0.03000100      1.06378200
H          -4.03577200      0.99191300     -0.69748600
H          -4.31457900     -0.74689900     -0.42703500
H          -3.41743900     -0.20547100     -1.86489400
H           0.86173100      2.56909600     -1.10071900
H           0.39364200      3.11727200      0.50988400
H          -0.76759400     -1.64405800      0.48209000
H          -2.37199100     -2.28296700      0.07138800
H          -1.30451400     -1.66848200     -1.21710200
H           2.88782100      1.39951000     -0.13401500
H           2.89960100      3.13265500      0.26100500
H           2.42788900      1.93795800      1.49646500
