20
b3lypvdz=-236.906102457217 
C           0.84419200     -0.38137600     -0.04348000
C          -0.00380400      0.87581200      0.18538700
C           2.26890200     -0.26974600      0.50629400
C          -1.43710700      0.75778200     -0.34542900
C          -2.28700700      2.01383100     -0.11801400
C          -3.71233300      1.89561800     -0.66494500
H           0.33687600     -1.24954800      0.41721700
H           0.88209700     -0.59757700     -1.12780200
H           0.49227300      1.74195800     -0.29266600
H          -0.02994600      1.10758000      1.26814800
H           2.27066800     -0.14776800      1.60385600
H           2.86700100     -1.16588600      0.27053000
H           2.79649900      0.59989400      0.07866000
H          -1.93413800     -0.10836000      0.13167800
H          -1.40942700      0.52613100     -1.42817900
H          -2.32299000      2.23365700      0.96560300
H          -1.78385100      2.88220600     -0.58298000
H          -4.24196800      1.03499400     -0.22205600
H          -3.71368000      1.75250900     -1.76003500
H          -4.30816000      2.79769000     -0.44668600
