13
b3lypvdz=-232.32199116123 
C          -3.55351800      0.10107400     -0.56709800
O          -5.94640400     -0.09189700     -0.28774500
C          -2.23441200      2.27083100     -0.36986600
C          -3.62030400      1.61664700     -0.37747600
C          -4.88032600     -0.61949900     -0.50744900
H          -2.89964500     -0.37197000      0.19399400
H          -3.07793200     -0.16310700     -1.53419700
H          -1.70584600      2.12030200     -1.32825800
H          -1.59632500      1.84567500      0.42438900
H          -2.30386000      3.35711800     -0.19458100
H          -4.24844700      2.05402900     -1.17293900
H          -4.14759500      1.84258700      0.56560600
H          -4.81828600     -1.72868900     -0.67888000
