23
b3lypvdz=-276.188084637592 
C           0.11769900      0.96290000      0.21848700
C          -1.32495000      0.96625000     -0.30386900
C          -2.20527200     -0.24566100      0.08291300
C          -2.71130000     -0.16747300      1.53209500
C           0.85633700      2.28217700     -0.03967600
C          -1.52476400     -1.59944800     -0.17682100
C           2.34352500      2.22026800      0.32089500
H           0.67989300      0.13996000     -0.26000100
H           0.13607500      0.75164400      1.30476900
H          -1.83477500      1.88452600      0.04473800
H          -1.29134800      1.04408600     -1.40744600
H          -3.09672700     -0.19082900     -0.57016500
H          -3.21201600      0.79519500      1.73305300
H          -3.44136900     -0.96801000      1.73959900
H          -1.88874800     -0.27842300      2.26018700
H           0.74712100      2.56131200     -1.10499100
H           0.36483500      3.08948800      0.53463300
H          -0.68737300     -1.76954000      0.52064600
H          -2.23988100     -2.42745100     -0.03351700
H          -1.12177200     -1.67177800     -1.20154400
H           2.86592500      1.45377500     -0.27640500
H           2.84943100      3.18242500      0.13514300
H           2.49075700      1.96270600      1.38477900
