15
b3lypvdz=-196.394786223876 
C           0.75018400     -0.30466200     -0.07503300
C           2.19004000     -0.35995700      0.46533100
C          -0.05210700     -1.56860700      0.25456300
C           4.18946000      0.83358700     -0.50010800
C           3.00404900      0.85655400      0.11642800
H           0.23447500      0.57994700      0.34250500
H           0.77781100     -0.15864800     -1.17044100
H           2.15065900     -0.46353700      1.56864500
H           2.69503400     -1.26429000      0.08231600
H          -1.07504500     -1.51156300     -0.15225300
H           0.42809200     -2.46547600     -0.17337200
H          -0.12897200     -1.71895700      1.34570500
H           4.66168400     -0.11002900     -0.79416000
H           4.73066100      1.75553500     -0.73132500
H           2.56737500      1.82690300      0.39179700
