21
b3lypvdz=-274.965204841527 
C           2.33091600     -0.44005000      0.44691600
C           2.14702600     -0.51065000      1.97654500
C           0.84148300      2.25700000     -0.01607200
C           3.00819600     -1.71727000     -0.06265000
C           2.32173900      2.16237700      0.38866100
C           4.18640700      0.88494200     -0.62689400
C           3.01720600      0.85753600      0.02831200
H           1.31701800     -0.41258300      0.00266600
H           1.60756600     -1.42912000      2.26125600
H           3.12574300     -0.52035800      2.48568800
H           1.57124900      0.34080800      2.37043000
H           0.21355400      1.52731300      0.51913500
H           0.70729300      2.08361600     -1.09754300
H           0.44175700      3.25756800      0.21741000
H           4.00890000     -1.85148400      0.38226600
H           2.40482700     -2.59718500      0.21407100
H           3.12203800     -1.71411700     -1.15812400
H           2.87971800      2.98776500     -0.08205100
H           2.39984900      2.32841700      1.48035400
H           4.73402700     -0.01980100     -0.89428800
H           4.64218800      1.83547700     -0.91908700
