21
b3lypvdz=-274.968144340998 
C           0.70025900     -0.30275500     -0.07515500
C           2.15418600     -0.33023900      0.42399200
C          -0.03715900     -1.62707800      0.14739200
C          -1.52544000     -1.54672900     -0.20260200
C           2.32947300      2.24933700      0.28463000
C           4.24479400      0.78669800     -0.33225600
C           2.97933300      0.89911700      0.09395200
H           0.14976800      0.50434100      0.44139900
H           0.67662100     -0.04950800     -1.15207500
H           2.13555000     -0.45924900      1.52541700
H           2.66849200     -1.22014200      0.02268600
H           0.44875000     -2.41768400     -0.45350400
H           0.07669900     -1.93654600      1.20340500
H          -2.03989700     -0.79510200      0.41954200
H          -2.03447600     -2.51145300     -0.04283500
H          -1.67576300     -1.25662600     -1.25743500
H           1.51118700      2.40467400     -0.43998400
H           3.05565600      3.06484900      0.14807500
H           1.87577100      2.34585000      1.28743600
H           4.71000800     -0.19184800     -0.48390300
H           4.86038800      1.66669400     -0.53897600
