23
b3lypvdz=-276.186862809128 
C           0.82041200     -0.34750200     -0.06489300
C           2.27668400     -0.48344700      0.42079300
C          -2.35026100     -0.22872800      0.13446700
C          -2.69771700     -0.17935700      1.62773400
C          -0.08219500     -1.54452700      0.27019300
C           3.04886200     -1.67104500     -0.16829800
C          -1.52066600     -1.45531900     -0.28170000
H           0.39655000      0.56830500      0.38339400
H           0.81994100     -0.18402300     -1.16049800
H           2.28724800     -0.55468100      1.52523600
H           2.81495000      0.44885200      0.16896800
H          -1.82893600      0.69992300     -0.15899800
H          -3.28994500     -0.23796200     -0.44616200
H          -3.34561200      0.68323300      1.85762700
H          -3.23767700     -1.09096500      1.93908100
H          -1.79568700     -0.09285000      2.25648700
H           0.36823800     -2.46391300     -0.14246200
H          -0.10573700     -1.68579400      1.36776800
H           4.10485700     -1.64732600      0.14939200
H           2.63268700     -2.63704600      0.16177900
H           3.02982800     -1.65324600     -1.27272500
H          -2.06843800     -2.36664900      0.02387600
H          -1.47278700     -1.48813400     -1.38696000
