23
b3lypvdz=-276.187231148204 
C           0.95523400     -0.55870600      0.01305700
C          -2.17238900     -0.04636500      0.09253200
C          -3.45300900      0.19966800     -0.73001100
C          -2.45875800     -0.04642500      1.60273300
C          -0.09892300     -1.64991000      0.23543400
C          -1.48713600     -1.35195700     -0.35930500
C          -4.04665000      1.60670600     -0.59724800
H           0.72266700      0.36505300      0.56856900
H           1.94853400     -0.90024100      0.34896200
H           1.04006900     -0.28503100     -1.05354300
H          -1.48074300      0.79076700     -0.12791000
H          -4.21306100     -0.55227400     -0.44293100
H          -3.22747100      0.00558800     -1.79513600
H          -2.88870800      0.90965300      1.94290600
H          -3.18238600     -0.84072900      1.86009300
H          -1.54711200     -0.22409000      2.19541600
H           0.26381000     -2.59018800     -0.21674000
H          -0.18346100     -1.85517600      1.31777300
H          -2.15878900     -2.20066200     -0.12514600
H          -1.39939700     -1.33067200     -1.46207500
H          -3.31935200      2.37534100     -0.91304700
H          -4.94139000      1.72298900     -1.23017700
H          -4.34607700      1.84116200      0.43749400
