14
b3lypvdz=-270.39395939666 
C           2.23900000     -0.38314500      0.52640400
O           6.06821500     -0.28806400     -1.42240300
C           2.31601800      2.15492800      0.42593400
C           5.00173600     -0.34820100     -0.83807100
C           4.21497700      0.83957400     -0.48202300
C           3.00449500      0.85023400      0.12217200
H           1.22609700     -0.35616200      0.08876000
H           2.10828400     -0.41212900      1.62308300
H           2.71544000     -1.31979300      0.21328900
H           1.35096200      2.21810700     -0.10706700
H           2.92958600      3.02028400      0.13718700
H           2.08513500      2.23226500      1.50402000
H           4.57788100     -1.33956100     -0.53765800
H           4.69587400      1.78296300     -0.76163000
