21
b3lypvdz=-274.963278968601 
C           0.02062500      0.96702100      0.20460800
C          -1.44468300      1.05277600     -0.23684900
C          -2.23371900     -0.22458400      0.05867100
C           0.86142800      2.17861900     -0.21324000
C           2.29011700      2.22272400      0.37458400
C           4.21596800      0.79212000     -0.43686600
C           3.07468900      0.94432400      0.24093000
H           0.46697100      0.04913300     -0.22058800
H           0.06024700      0.83858100      1.30490200
H          -1.92613800      1.91571300      0.25987300
H          -1.48772900      1.26981100     -1.32165500
H          -3.27897400     -0.14885200     -0.28315300
H          -2.24791800     -0.44868300      1.13996100
H          -1.78261700     -1.09488400     -0.44913900
H           0.91843600      2.20803900     -1.31708400
H           0.33976400      3.10486500      0.09311600
H           2.85132700      3.04413400     -0.10370500
H           2.21817500      2.47669300      1.45047900
H           4.73714400     -0.16894400     -0.47477800
H           4.67878000      1.62746900     -0.97334000
H           2.65860600      0.07332400      0.76417300
