23
b3lypvdz=-276.184930894851 
C           0.75039900     -0.33145100     -0.11025600
C           0.05801600      0.99243700      0.27829000
C           2.17912200     -0.48532600      0.46302500
C           2.30144400     -0.44649200      1.99254400
C          -0.10744600     -1.56635000      0.23922800
C           0.86842400      2.26830000      0.00816900
C          -1.53411700     -1.57605300     -0.32504500
H           0.85989900     -0.31825500     -1.21415200
H          -0.88869200      1.05942300     -0.28379300
H          -0.22980900      0.96387500      1.34656800
H           2.59439700     -1.44086000      0.09315400
H           2.82845500      0.29842200      0.03464000
H           1.73345500     -1.25503200      2.47970200
H           3.35449900     -0.55759100      2.29993800
H           1.93735400      0.50676000      2.41157900
H           0.42758600     -2.46149300     -0.12874100
H          -0.16145400     -1.67685900      1.33821600
H           1.74711800      2.35572400      0.66689400
H           1.23219300      2.30450500     -1.03398100
H           0.24554800      3.16349300      0.17499300
H          -2.16357300     -0.79208800      0.12618200
H          -2.02622600     -2.54197800     -0.12028700
H          -1.54259100     -1.42251300     -1.41916500
