21
b3lypvdz=-274.997497474931 
C           0.77003500     -0.34281600     -0.11297400
C           0.04172900      0.96101500      0.26345800
C           2.17637800     -0.40829000      0.49631100
C          -1.37958400      1.02662000     -0.32000500
C          -2.21036500     -0.20520500      0.07208000
C          -0.07233900     -1.57686000      0.26370700
C          -1.50129000     -1.51654200     -0.30324000
H           0.88062500     -0.34747400     -1.21719600
H           0.63303600      1.82814600     -0.08341500
H          -0.01337100      1.04149400      1.36729400
H           2.13512600     -0.40142900      1.60122600
H           2.70322800     -1.32696000      0.18654400
H           2.78984800      0.45284000      0.18021300
H          -1.88638000      1.94686500      0.02122700
H          -1.31821900      1.09163100     -1.42312300
H          -3.20413200     -0.16188400     -0.40669100
H          -2.38446800     -0.18916400      1.16500700
H           0.43422400     -2.49107300     -0.09557700
H          -0.12098100     -1.66035000      1.36775200
H          -2.08682200     -2.37947500      0.06080700
H          -1.46127600     -1.60769000     -1.40590400
