20
b3lypvdz=-236.904573701897 
C           0.09168500      0.93605300      0.15572100
C          -1.38013600      1.12969300     -0.23279200
C          -2.29342600     -0.06802300      0.10465900
C          -3.55749900     -0.06832500     -0.76707200
C          -2.66052200     -0.08943900      1.59593800
C           0.94283600      2.18624200     -0.07359000
H           0.50600000      0.09456800     -0.42983100
H           0.16932700      0.63143700      1.21543500
H          -1.77803500      2.03528000      0.26538700
H          -1.43144600      1.33913800     -1.31756800
H          -1.72897400     -0.99318600     -0.12264900
H          -4.12176700      0.87463500     -0.65350800
H          -4.23748600     -0.89299400     -0.49462300
H          -3.30205200     -0.17960600     -1.83447800
H          -3.24767900      0.80682400      1.86630800
H          -3.27490600     -0.96904500      1.85082600
H          -1.76608600     -0.10862200      2.23974100
H           2.00071100      2.01064000      0.18320600
H           0.90258100      2.51010000     -1.12863400
H           0.58517300      3.02952900      0.54132400
