17
b3lypvdz=-197.619721450697 
C          -0.04404100      1.03023300      0.28975000
C          -1.42173900      0.96990200     -0.39781400
C          -2.20383800     -0.26250300      0.08081100
C           0.83949000      2.21547500     -0.11904900
C          -2.24537300      2.25170600     -0.19743500
H           0.49519800      0.09073100      0.06658900
H          -0.18997600      1.04597900      1.38735900
H          -1.24461000      0.85102000     -1.48517900
H          -3.16232300     -0.36058300     -0.45499700
H          -2.42805000     -0.19511300      1.16074100
H          -1.62868900     -1.18985100     -0.08533600
H           1.83954100      2.13298100      0.33702600
H           0.97256300      2.25808000     -1.21435500
H           0.41040900      3.17701300      0.20641900
H          -3.24070300      2.15589600     -0.66264800
H          -2.39506300      2.46645100      0.87617600
H          -1.75729500      3.12818300     -0.65266000
