18
b3lypvdz=-235.702694098383 
C          -0.01498200      1.04180800      0.37752700
C          -1.31183800      0.94176400     -0.42296400
C          -2.23289000     -0.23069400     -0.03825500
C          -3.58304000      0.12803100     -0.68419700
C          -2.23851000      2.17047500     -0.27203500
C          -3.67685600      1.67646200     -0.59493600
H           0.60421900      0.13588500      0.25893700
H           0.59390700      1.90267500      0.05252800
H          -0.22237400      1.16940900      1.45539600
H          -1.05822400      0.82481300     -1.49493100
H          -2.33362200     -0.26808100      1.06368200
H          -1.84376100     -1.20945700     -0.36402500
H          -4.43470800     -0.38251800     -0.20844400
H          -3.57697800     -0.18799100     -1.74199400
H          -2.18896900      2.53012100      0.77141900
H          -1.92045400      3.01174000     -0.90841000
H          -4.05822700      2.10632400     -1.53441000
H          -4.37999200      1.98823400      0.19391400
