20
b3lypvdz=-236.902575733599 
C           0.78205400     -0.33088100     -0.02449900
C           2.22279700     -0.44512000      0.50210600
C          -2.31347000     -0.23043900      0.07358500
C           2.33248300     -0.51332600      2.03059200
C          -0.09686100     -1.55705300      0.26165500
C          -1.52155400     -1.48394800     -0.32045100
H           0.32034300      0.56965200      0.41919300
H           0.81269800     -0.15606600     -1.11665200
H           2.70931100     -1.33314400      0.05637800
H           2.79774000      0.42790500      0.14346300
H          -1.87849600      0.68160700     -0.36636000
H          -3.35537300     -0.29824900     -0.28113900
H          -2.33839800     -0.09666900      1.16978300
H           1.89604100     -1.44057900      2.43726900
H           3.38701400     -0.47969100      2.35088800
H           1.81080100      0.33535900      2.50683900
H           0.40314900     -2.45692500     -0.14354400
H          -0.17083900     -1.71123400      1.35445100
H          -2.07819300     -2.38008700      0.00907200
H          -1.47084400     -1.54521100     -1.42442900
