23
b3lypvdz=-276.18498606053 
C           0.76436900     -0.35344600     -0.01940300
C           0.00034900      0.95107300      0.26841100
C          -1.40492300      0.94988200     -0.39942200
C          -2.26240800     -0.25308500      0.03233000
C           0.82457200      2.19347400     -0.14385900
C          -2.18373300      2.25424000     -0.15210600
C           2.26982000      2.23853000      0.37587300
H           1.73082200     -0.37927000      0.50695500
H           0.20255500     -1.23708000      0.31920900
H           0.96206400     -0.46975300     -1.10055200
H          -0.15566800      1.00822200      1.36535900
H          -1.24324900      0.86367300     -1.49320500
H          -3.27138100     -0.18790800     -0.40769100
H          -2.37786900     -0.29055200      1.13105600
H          -1.83158700     -1.21105800     -0.29550800
H           0.83643400      2.26553700     -1.24906700
H           0.30690000      3.09715400      0.21730100
H          -3.19701400      2.18789200     -0.58242000
H          -2.29179300      2.45751100      0.92901000
H          -1.69496300      3.12506200     -0.61412800
H           2.90473400      1.46503000     -0.08560100
H           2.73080900      3.21418000      0.14464500
H           2.31116100      2.10079300      1.47141500
