17
b3lypvdz=-197.619687624803 
C           0.75408200     -0.29697600     -0.10805800
C           0.08291200      1.01654500      0.31940400
C           2.16572900     -0.41685700      0.48717600
C          -0.07953900     -1.54913000      0.23229300
C          -1.52080900     -1.54913100     -0.29564900
H           0.86035700     -0.26476400     -1.21161000
H          -0.85975100      1.18999000     -0.22374700
H           0.74356100      1.87570200      0.11121800
H          -0.14323500      1.02297600      1.40162100
H           2.13338000     -0.44423900      1.59206700
H           2.66580000     -1.33818500      0.14345500
H           2.79902000      0.43735000      0.19271200
H           0.44866700     -2.43174100     -0.17295500
H          -0.09740900     -1.68282100      1.33183700
H          -2.13551600     -0.77197500      0.18643700
H          -2.00920700     -2.51841200     -0.09749500
H          -1.55194300     -1.37583100     -1.38630500
