15
b3lypvdz=-196.398512187383 
C           2.30451000     -0.38463200      0.52556900
C           2.23171300     -0.56029900      2.05187300
C           2.30682300      2.18985900      0.39554500
C           4.18196100      0.85279900     -0.54851200
C           3.00370500      0.88600000      0.08785500
H           1.27649600     -0.38970700      0.11462600
H           2.81856600     -1.25383100      0.08285000
H           1.74458500     -1.51529600      2.31177800
H           3.24035100     -0.56014300      2.49736300
H           1.65069700      0.24342400      2.53328900
H           1.28908800      2.20016100     -0.03521300
H           2.85705400      3.04970000     -0.01535500
H           2.20069500      2.34418500      1.48459700
H           4.67919600     -0.09345900     -0.78240900
H           4.68776000      1.77033800     -0.86365800
