20
b3lypvdz=-236.902666084321 
C           0.75942000     -0.30977900     -0.15912700
C           0.06816300      1.01523100      0.22347500
C           2.17359800     -0.43526300      0.43021400
C          -0.07769200     -1.54054900      0.25115600
C           0.88195700      2.28832700     -0.03873300
C          -1.52500900     -1.57593000     -0.25215400
H           0.85321600     -0.32230500     -1.26410000
H          -0.88034100      1.08484400     -0.33543900
H          -0.21233700      0.97933000      1.29436400
H           2.15823600     -0.33830400      1.53121100
H           2.61183200     -1.41899000      0.19016400
H           2.85916400      0.33215600      0.03831300
H           0.44867700     -2.44286900     -0.11023300
H          -0.07545600     -1.61535800      1.35608300
H           1.75936400      2.36722100      0.62277700
H           1.25020800      2.32902500     -1.07903100
H           0.26294700      3.18520400      0.13077100
H          -2.13612400     -0.76644400      0.17839200
H          -2.01076200     -2.52687500      0.02325800
H          -1.57706100     -1.48217100     -1.35156000
