12
b3lypvdz=-157.109307447901 
C           2.28937700      2.19885700      0.41053000
C           0.84714700      2.21864700     -0.12533300
C           4.20110900      0.83432700     -0.51525200
C           3.01396600      0.91798500      0.09323700
H           2.85515100      3.05562500      0.00595800
H           2.26223600      2.32908600      1.51062800
H           0.25539000      1.38318800      0.28652200
H           0.82969900      2.13082800     -1.22523900
H           0.33373300      3.15524600      0.15071200
H           4.67202200     -0.13240500     -0.71645900
H           4.74651500      1.73035100     -0.83021000
H           2.50635500     -0.00993500      0.39300600
