21
b3lypvdz=-274.964210250823 
C          -0.09923900      1.19076200     -0.55128600
C           2.47022000     -0.52052900      1.06190100
C           2.64074300     -0.41763600      2.58842400
C           0.97619300      2.27628300     -0.46156600
C           2.10562400      2.01110200      0.55771700
C           3.94585200      0.71675700     -0.51510200
C           2.89516100      0.73205400      0.31871300
H           0.30019700      0.25464800     -0.97406800
H          -0.93266300      1.51587700     -1.19517300
H          -0.52225100      0.95560700      0.44166400
H           1.41165100     -0.74529800      0.84224000
H           3.05366300     -1.37625900      0.68443700
H           2.51777100     -1.40509500      3.06210200
H           3.64111000     -0.03662800      2.85444400
H           1.89653900      0.25489200      3.04338900
H           1.43445700      2.42285800     -1.45599600
H           0.49826600      3.23641800     -0.19504600
H           2.79738700      2.86990200      0.52365500
H           1.67034500      2.00021000      1.57227300
H           4.50599200     -0.20155200     -0.71530300
H           4.28088100      1.62092400     -1.03302000
