10
b3lypvdz=-193.04675929029 
C          -5.07186400     -1.94914900     -1.01435200
O          -5.57255500     -0.18490900      0.52396400
C          -4.81517900     -0.62093900     -0.31897800
C          -3.55315200      0.12487800     -0.72557800
H          -4.21474300     -2.63000000     -0.87045700
H          -5.98140500     -2.40958800     -0.60634500
H          -5.18604400     -1.80180800     -2.10278200
H          -2.66550400     -0.51025100     -0.55923800
H          -3.46179100      1.04948300     -0.14094400
H          -3.57646400      0.36778200     -1.80229000
