18
b3lypvdz=-235.679157811198 
C           0.84443300     -0.29902700     -0.07776900
C           2.27898100     -0.44366800      0.48396800
C           2.20302400     -0.55488700      2.02398900
C           2.93951200     -1.70927000     -0.08426400
C           4.15000100      0.93938500     -0.60513500
C           3.04526100      0.82223300      0.13690400
H           0.34175600      0.58456700      0.35003200
H           0.23432800     -1.18407300      0.17196500
H           0.85495000     -0.18592000     -1.17455100
H           1.57166200     -1.40866400      2.32369200
H           3.20491300     -0.69604100      2.46154700
H           1.76171500      0.35269300      2.46920800
H           3.96198400     -1.83819100      0.30718400
H           2.35724800     -2.59934600      0.20664500
H           2.99702900     -1.68484700     -1.18449800
H           4.64570200      0.07825800     -1.06066500
H           4.60412100      1.91686600     -0.79188200
H           2.60108100      1.73493100      0.56083400
