23
b3lypvdz=-276.185006879758 
C           0.75706100     -0.31276000     -0.22802800
C           0.06870000      0.98816400      0.23836900
C           2.20656500     -0.41145700      0.29907700
C          -0.07384500     -1.55599900      0.15946700
C           0.84437500      2.29075600      0.00653100
C           2.94784800     -1.71587700     -0.01897400
C          -1.54866700     -1.53593200     -0.26042800
H           0.80866800     -0.28160100     -1.33672600
H          -0.90333500      1.06753100     -0.27628900
H          -0.16724700      0.89756400      1.31688300
H           2.19991300     -0.26021100      1.39663500
H           2.78641000      0.43054300     -0.11541200
H           0.40006500     -2.44580300     -0.28660200
H          -0.00919300     -1.69827900      1.25608200
H           1.74214800      2.36538900      0.64050000
H           1.17317000      2.38912600     -1.04316300
H           0.20902600      3.16153100      0.23984300
H           4.00514700     -1.64844700      0.28659900
H           2.51455500     -2.58022500      0.50836800
H           2.92618300     -1.94269500     -1.09971900
H          -2.12611100     -0.75912300      0.26490900
H          -2.02983400     -2.50246200     -0.03527700
H          -1.66000100     -1.35463300     -1.34454500
