19
b3lypvdz=-310.8864041794 
C           0.82721000     -0.38461400      0.08513600
C          -2.25158700     -0.03434100     -0.10333200
C          -3.63542400      0.10809100     -0.77812200
O          -5.48741700     -0.56230000      0.60325900
C          -0.17554600     -1.52036200      0.30938100
C          -1.53064800     -1.35610500     -0.39816700
C          -4.66232000     -0.85874200     -0.23181400
H           0.48578000      0.56075300      0.53710000
H           1.80139300     -0.62819300      0.53802300
H           0.99644900     -0.19306100     -0.98835500
H          -1.63031400      0.81097800     -0.44123300
H          -2.38226700      0.09581000      0.98673400
H          -4.02463000      1.12341200     -0.60460900
H          -3.52664000     -0.06290800     -1.86470500
H           0.27371800     -2.46870400     -0.03398300
H          -0.34530100     -1.64210300      1.39437900
H          -2.17319100     -2.20421500     -0.10143900
H          -1.38957500     -1.44916300     -1.49182600
H          -4.62829000     -1.89803200     -0.65572700
