17
b3lypvdz=-197.618621269413 
C           0.75268200     -0.37943000     -0.13135500
C           2.19476700     -0.42601100      0.40146300
C          -0.08942500     -1.63413400      0.13695600
C           3.01595200     -1.64222800     -0.03993800
C          -1.56888400     -1.45086200     -0.21357500
H           0.24367200      0.49277900      0.32032800
H           0.76573300     -0.18679100     -1.22247500
H           2.17156200     -0.39154100      1.50761600
H           2.71343400      0.49696400      0.08423300
H           0.32306500     -2.48352400     -0.43678500
H           0.00296300     -1.92040600      1.20260700
H           4.05035200     -1.57880300      0.33631200
H           2.58936400     -2.58411200      0.34314200
H           3.06396400     -1.72528500     -1.14030100
H          -2.02399800     -0.64170800      0.38293800
H          -2.15207100     -2.36754200     -0.02365100
H          -1.70203100     -1.18516700     -1.27771400
