11
b3lypvdz=-231.107974675875 
O           6.06678600     -0.28152500     -1.25321400
C           4.48263700     -1.68322100     -0.13141600
C           4.99343400     -0.36006300     -0.67952900
C           4.16103600      0.86697600     -0.52000700
C           2.98392400      0.93681800      0.11559100
H           3.55443100     -1.98238700     -0.64576200
H           4.25156700     -1.61172500      0.94458900
H           5.25003700     -2.45182900     -0.29366000
H           4.60974200      1.75495800     -0.97752800
H           2.51994800      0.06196400      0.57928200
H           2.43755900      1.88083300      0.19445500
