23
b3lypvdz=-276.186922755025 
C           0.77678300     -0.38398600     -0.04001200
C           2.23018800     -0.48016900      0.47969000
C          -2.31475700     -0.19526200      0.09579600
C           2.29931900     -0.52437300      2.01445900
C          -0.13156400     -1.58506700      0.26725300
C           3.01281800     -1.64684200     -0.14422000
C          -1.55931000     -1.46997000     -0.30212900
H           0.32684400      0.52721100      0.39145400
H           0.80383800     -0.22226500     -1.13488900
H           2.73217300      0.45291700      0.15930000
H          -1.86029400      0.70469500     -0.34881600
H          -3.36079400     -0.23658700     -0.25069500
H          -2.32790000     -0.06000200      1.19200400
H           1.90058700     -1.47167500      2.41611600
H           3.34160600     -0.43360900      2.36341000
H           1.72175900      0.29860700      2.46883200
H           0.32375400     -2.50621400     -0.13626700
H          -0.19918400     -1.72700300      1.36208600
H           4.07616200     -1.60729700      0.14752600
H           2.62006500     -2.62353900      0.18611200
H           2.96681100     -1.61777600     -1.24686700
H          -2.13768800     -2.34989100      0.03344500
H          -1.51911800     -1.53480600     -1.40628800
