20
b3lypvdz=-236.903556650684 
C           0.11251600      1.01901900      0.31408500
C          -1.31129900      1.04534500     -0.25292800
C          -2.24045700     -0.15790900      0.06820400
C          -3.53763900      0.02535700     -0.74515200
C          -2.59628100     -0.19171600      1.56745900
C          -1.58331800     -1.49621600     -0.32183400
H           0.69039200      0.15644400     -0.05655900
H           0.66130200      1.92529600      0.00743500
H           0.12676200      0.98378100      1.41658100
H          -1.82118800      1.96130400      0.10027900
H          -1.24907600      1.14267600     -1.35283200
H          -4.03957900      0.97299200     -0.48307300
H          -4.25098900     -0.79306800     -0.55039900
H          -3.33273800      0.04203600     -1.82933400
H          -3.04168500      0.76332900      1.89530700
H          -3.33367300     -0.98560300      1.77547200
H          -1.71376400     -0.38883100      2.19767800
H          -0.68951900     -1.70674200      0.28693500
H          -2.28689800     -2.33238400     -0.16848200
H          -1.27696800     -1.50501100     -1.38214100
