17
b3lypvdz=-197.618638638897 
C           0.74473900     -0.32290800     -0.02912500
C           2.22836700     -0.44953900      0.35501800
C          -0.11543400     -1.55116400      0.28442100
C           2.94858400     -1.67490000     -0.22463000
C           4.46570200     -1.62473100     -0.03130000
H           0.32276700      0.55533600      0.49101000
H           0.66994300     -0.09877300     -1.11033300
H           2.32166100     -0.46678000      1.45883900
H           2.75741000      0.46384800      0.02358600
H          -1.17774700     -1.35804100      0.05948700
H           0.19001300     -2.42755100     -0.31033800
H          -0.04491400     -1.83633000      1.34954100
H           2.55150500     -2.59295300      0.24417400
H           2.71496800     -1.76181000     -1.30315200
H           4.90689700     -0.75652500     -0.55061900
H           4.73231600     -1.53657900      1.03648500
H           4.96012300     -2.52780200     -0.42506300
