16
b3lypvdz=-271.617104026735 
C          -2.28961400     -0.27499700      0.09809300
C          -3.49374900      0.16747700     -0.75963000
C          -5.05081600     -1.90995600     -0.99208000
O          -5.41071900     -0.19970500      0.64009300
C          -3.72218200      1.67794200     -0.66661200
C          -4.73431000     -0.60551200     -0.28504200
H          -1.38052500      0.26258100     -0.21618100
H          -2.47086700     -0.04908500      1.16209400
H          -2.08938800     -1.35502100      0.00482200
H          -3.28184400     -0.11708700     -1.80604000
H          -4.16506600     -2.56843900     -1.01000400
H          -5.88521800     -2.41633200     -0.48970600
H          -5.31412400     -1.71464900     -2.04654500
H          -2.80633800      2.22807300     -0.93583800
H          -4.52550300      2.00550200     -1.34528000
H          -4.01953800      1.95500800      0.35605700
