17
b3lypvdz=-197.618639950896 
C           0.04753300      1.03133000      0.31364900
C          -1.33062800      0.86052500     -0.35000500
C           0.83373100      2.26678300     -0.14278500
C          -2.27169600      2.06798400     -0.21068700
C          -3.71737600      1.75413500     -0.61765700
H           0.65051700      0.12676500      0.11261000
H          -0.08533800      1.07361300      1.41149000
H          -1.82004400     -0.02778700      0.09051700
H          -1.19222400      0.63319800     -1.42501000
H           1.83313000      2.28840400      0.32197800
H           0.97217200      2.27333300     -1.23847800
H           0.32255600      3.20234800      0.13857600
H          -2.26257500      2.42585000      0.83626200
H          -1.89463300      2.90281900     -0.82753000
H          -4.14727200      0.96334000      0.02014500
H          -3.77265100      1.40363400     -1.66368600
H          -4.36090200      2.64562500     -0.52599100
