23
b3lypvdz=-276.187649752809 
C           0.76952100     -0.34028800     -0.06815300
C           0.05897300      0.97538800      0.27555800
C           2.26088000     -0.34084600      0.28727400
C          -1.38745800      1.10228300     -0.23897300
C          -2.33009900     -0.08077900      0.04171800
C          -2.54779300     -0.41564600      1.52071700
C           2.92908200     -1.69932300      0.05983800
H           0.27923400     -1.17379700      0.46794900
H           0.65268400     -0.56907200     -1.14623000
H           0.64234400      1.82028900     -0.13625100
H           0.08305300      1.10770900      1.37399500
H           2.38491700     -0.04399100      1.34656700
H           2.77697100      0.43827100     -0.30393200
H          -1.82903200      2.02239800      0.18764700
H          -1.36138200      1.26052200     -1.33352900
H          -3.30480200      0.14700900     -0.42640000
H          -1.95227000     -0.97807500     -0.48298600
H          -2.93697500      0.45374800      2.07922400
H          -3.27585800     -1.23575400      1.64011200
H          -1.61439300     -0.73536700      2.01337700
H           3.99586300     -1.68297200      0.33882100
H           2.44225900     -2.48576300      0.66195600
H           2.86157900     -2.00814500     -0.99839700
