20
b3lypvdz=-236.903573417568 
C           0.77775800     -0.37323300     -0.08637100
C           0.02849400      0.89272100      0.34797500
C           2.26222900     -0.36317300      0.29751800
C          -1.40015100      1.04269000     -0.20388100
C          -2.31106300     -0.17697800     -0.02841000
C           2.97326400     -1.68081700     -0.01757200
H           0.29805400     -1.26044900      0.36701600
H           0.68748400     -0.51227800     -1.18217200
H           0.61327400      1.78042200      0.04062500
H           0.00242500      0.92267900      1.45476500
H           2.36092600     -0.13952700      1.37722700
H           2.76647900      0.47076900     -0.22532100
H          -1.86806100      1.91655600      0.28353200
H          -1.34703400      1.29218300     -1.28042400
H          -3.33392200      0.04464400     -0.37549200
H          -2.37724500     -0.49654300      1.02669400
H          -1.94986200     -1.04216700     -0.60918800
H           4.03426300     -1.65570800      0.28150300
H           2.50057000     -2.52471500      0.51384600
H           2.93341800     -1.91067500     -1.09706900
