23
b3lypvdz=-276.187553010969 
C           0.82489500     -0.29424900     -0.15723300
C           0.05938100      0.96294100      0.30509000
C           2.29897600     -0.36938400      0.26618200
C          -1.37860000      1.01738700     -0.25358500
C          -2.23478400     -0.23175800     -0.03139200
C           0.78347400      2.27606500     -0.02762000
C           2.89883000     -1.75845000      0.03457200
H           0.30929300     -1.18134600      0.25061800
H           0.75874700     -0.39018000     -1.25943900
H          -0.01581900      0.90084200      1.40948300
H           2.39365500     -0.10634600      1.33662300
H           2.88918600      0.38459800     -0.28306800
H          -1.88428200      1.88574400      0.20539800
H          -1.33167500      1.23776300     -1.33765000
H          -3.27109500     -0.05777200     -0.36384400
H          -2.26907500     -0.51812600      1.03425600
H          -1.85264000     -1.09926700     -0.59277100
H           1.75210700      2.35978700      0.48767800
H           0.96897900      2.37039100     -1.11250000
H           0.17156500      3.14108400      0.27939800
H           3.96132400     -1.79814100      0.32669300
H           2.36386500     -2.52241100      0.62345900
H           2.82899300     -2.05447400     -1.02674600
