20
b3lypvdz=-236.903660131536 
C           0.81565700     -0.28128400     -0.02601000
C          -0.12194000      0.89817600      0.28370200
C          -1.51870200      0.80728800     -0.34199000
C           0.22796500     -1.67207900      0.24535300
C          -2.33902000      2.09422900     -0.19346100
C          -3.79061500      1.94691200     -0.65702600
H           1.73921100     -0.15345800      0.56641800
H           1.12919100     -0.22861900     -1.08535200
H           0.36591600      1.82943800     -0.06071800
H          -0.23110100      1.00562200      1.38045100
H          -2.07790400     -0.02855500      0.11738200
H          -1.43003400      0.55469500     -1.41712500
H          -0.60490800     -1.90405900     -0.43823200
H           0.99107900     -2.45591600      0.10572400
H          -0.16117600     -1.75988100      1.27568300
H          -2.32071600      2.41865800      0.86419100
H          -1.84562800      2.90368800     -0.76339100
H          -4.32111000      1.17961300     -0.06785000
H          -3.84733100      1.63852200     -1.71632700
H          -4.35083500      2.89081000     -0.55222100
