18
b3lypvdz=-235.680183090771 
C           0.75002800     -0.31247000     -0.08916100
C           2.18934400     -0.36334900      0.45641200
C          -0.06543800     -1.56865100      0.24751000
C          -1.50409800     -1.52265900     -0.28379300
C           4.19720500      0.83772100     -0.48509100
C           3.00126100      0.85619700      0.11112600
H           0.23521500      0.57704300      0.32138600
H           0.77939500     -0.17435100     -1.18629400
H           2.14548400     -0.46360300      1.55961400
H           2.69996000     -1.26632200      0.07855900
H           0.45043400     -2.45659700     -0.16329000
H          -0.08421100     -1.70291900      1.34548400
H          -2.05121000     -0.65419900      0.12141100
H          -2.06508100     -2.42942600     -0.00089300
H          -1.52262300     -1.44585300     -1.38529200
H           4.68126500     -0.10400500     -0.76529100
H           4.73648500      1.76213100     -0.71106800
H           2.55548500      1.82551000      0.37537100
