15
b3lypvdz=-196.415615129985 
C          -1.33645900      0.98509200     -0.30683100
C          -2.24931900     -0.20199900      0.04102900
C          -3.55272100      0.12566400     -0.71072900
C          -2.27927500      2.20509300     -0.22984200
C          -3.68988000      1.67070300     -0.62331500
H          -0.46552100      1.07732600      0.36212300
H          -0.95043600      0.86459000     -1.33478900
H          -2.43546900     -0.22656200      1.13044600
H          -1.82166300     -1.17655300     -0.24678100
H          -4.42710200     -0.40434800     -0.30066500
H          -3.45323500     -0.18433200     -1.76551400
H          -2.30014800      2.59249900      0.80289500
H          -1.94478300      3.03395200     -0.87337700
H          -4.03589000      2.09224100     -1.58022900
H          -4.43619800      1.96003500      0.13387900
