20
b3lypvdz=-236.90296589508 
C           0.37384500      0.96566900      0.02659700
C           1.86456300      0.97279700      0.43088600
C           2.54693500     -0.29321800     -0.12839100
C           4.02551100     -0.47280900      0.24325300
C          -0.44094300      2.18783500      0.47015800
C           2.57846900      2.26600400      0.00875100
H          -0.09136500      0.05499300      0.44606900
H           0.30186500      0.86411500     -1.07401800
H           1.91126700      0.91385500      1.53766200
H           1.98158700     -1.17399600      0.22959000
H           2.44673100     -0.29535800     -1.23113300
H           4.17587700     -0.42147900      1.33604400
H           4.39621100     -1.45328000     -0.09999900
H           4.66575000      0.29370200     -0.22220700
H          -1.51271000      2.04135500      0.25296900
H          -0.34020600      2.36913500      1.55517400
H          -0.12512100      3.10369600     -0.05446500
H           3.63282500      2.27011800      0.32928100
H           2.55463000      2.39658100     -1.08864400
H           2.10848100      3.15158500      0.46462400
