17
b3lypvdz=-197.618464704302 
C          -0.42998000     -0.05693700      0.39075300
C          -1.84942000      0.33422800     -0.05854000
C          -2.94117400     -0.70578600      0.20914900
C           0.07134700     -1.41642600     -0.11495000
C           1.54661800     -1.65719500      0.21313200
H           0.26643200      0.72918300      0.04354700
H          -0.36770700     -0.04037800      1.49616200
H          -2.12326800      1.27832200      0.44533100
H          -1.83457300      0.56396100     -1.13997500
H          -3.92885300     -0.31355400     -0.08632600
H          -2.77648700     -1.63269400     -0.36365500
H          -2.99735300     -0.98178200      1.27636400
H          -0.53786300     -2.22491800      0.32661700
H          -0.08005800     -1.48746200     -1.20881500
H           2.19287100     -0.89627600     -0.25624500
H           1.88748500     -2.64228700     -0.14582700
H           1.72658400     -1.61360000      1.30147800
