23
b3lypvdz=-276.188440194867 
C           0.50481300      1.10816500      0.10030100
C           1.94925100      0.85117300      0.54276600
C          -0.49154800     -0.04582200      0.33795100
C          -1.88065200      0.34128600     -0.21254400
C          -3.04975500     -0.52707000      0.26564300
C          -4.39891700     -0.11891200     -0.33485300
C           0.00470400     -1.38153200     -0.23690300
H           0.11960300      2.00081200      0.62560800
H           0.49797600      1.36727800     -0.97621400
H           2.43217400      0.06197000     -0.05518600
H           2.55974200      1.76267400      0.43013000
H           2.00216400      0.54253200      1.60217300
H          -0.59161400     -0.17627000      1.43542300
H          -2.08968600      1.39175500      0.06713400
H          -1.84080400      0.32194000     -1.32023700
H          -2.85730700     -1.58689300      0.01979200
H          -3.10781000     -0.47123300      1.36942600
H          -5.21714900     -0.74553100      0.05514700
H          -4.64247700      0.93200800     -0.09937000
H          -4.39836700     -0.22027700     -1.43474900
H           0.92131800     -1.72480100      0.26703000
H          -0.74657600     -2.17794900     -0.11395200
H           0.22651800     -1.29380100     -1.31631400
