15
b3lypvdz=-196.394266519432 
C           2.49420300     -0.36782900     -0.07267100
C           4.00522000     -0.43213900      0.16210300
C           4.67828000     -1.43021200     -0.79720200
C           4.15182900      2.10795900     -0.11125200
C           4.70179900      0.90836600      0.10358600
H           1.99363200      0.31525500      0.63100400
H           2.04056300     -1.36469400      0.05171000
H           2.26625900     -0.02157900     -1.09620400
H           4.17228500     -0.81947000      1.18902500
H           5.75778400     -1.52205900     -0.59005100
H           4.22885000     -2.43221200     -0.70006900
H           4.56376000     -1.10446000     -1.84638200
H           3.08029100      2.24318700     -0.28339000
H           4.76681400      3.01187200     -0.12467100
H           5.78743200      0.85621700      0.26606500
