21
b3lypvdz=-274.968030559644 
C           1.75858400      1.01939500      0.38168000
C           6.70994400     -0.16472800     -1.09507700
C           2.56755800      2.28329500      0.09399200
C           6.24138900      0.84630700     -0.02888500
C           6.40753600     -1.62851000     -0.75853900
C           4.05855000      2.10180600     -0.03458000
C           4.74777600      0.96389800      0.11708800
H           0.68463400      1.25384200      0.46084900
H           1.88201100      0.26824800     -0.41644300
H           2.07137200      0.54864200      1.32900400
H           7.80076100     -0.04452600     -1.22235800
H           6.25334600      0.09937600     -2.06607200
H           2.19275600      2.75732200     -0.83471600
H           2.36967100      3.03756700      0.88084200
H           6.68731200      0.54927200      0.94180600
H           6.65258200      1.84232200     -0.27032000
H           5.32450500     -1.83660600     -0.73964100
H           6.86022300     -2.30968800     -1.49710100
H           6.81598400     -1.90179800      0.23094000
H           4.61909200      3.01527900     -0.27924800
H           4.20931400      0.04318600      0.36938100
