23
b3lypvdz=-276.188547101601 
C           0.54654300      0.98046300      0.14159600
C          -0.48406900     -0.12045500      0.45546000
C          -1.86538900      0.33101900     -0.09681700
C          -3.07633800     -0.53863400      0.26506300
C          -4.36724100     -0.10450200     -0.43623800
C          -0.53273300     -0.32590300      1.98197900
C          -0.03959300     -1.43273700     -0.22178900
H           1.55849900      0.67821800      0.46089700
H           0.29612600      1.91788700      0.66726300
H           0.58551600      1.20321300     -0.93829100
H          -2.06040100      1.36534100      0.24516200
H          -1.78511100      0.38633100     -1.19961500
H          -2.87245800     -1.59384500      0.00921100
H          -3.23655700     -0.51079500      1.35755900
H          -5.21917800     -0.72778300     -0.11936300
H          -4.61777600      0.94544300     -0.20360800
H          -4.28303200     -0.19011600     -1.53398000
H          -0.86394000      0.59042300      2.50050900
H          -1.21922700     -1.13778900      2.26909700
H           0.46580300     -0.58892900      2.37095600
H           0.94421400     -1.75590700      0.15831000
H          -0.74985000     -2.25300200     -0.02928400
H           0.04549200     -1.31024000     -1.31527700
