17
b3lypvdz=-197.618834975764 
C           0.48661100      0.92586300      0.09089600
C          -0.60462500     -0.10523900      0.40096900
C          -1.97881600      0.29071200     -0.15922700
C          -3.15376500     -0.56698000      0.33865100
C          -3.01975300     -2.06844200      0.05240900
H           1.46295300      0.60655200      0.49213300
H           0.24495000      1.90595400      0.53722700
H           0.60142300      1.07277800     -0.99705900
H          -0.67795200     -0.23813300      1.49705400
H          -0.30274400     -1.08378000     -0.01205000
H          -2.18262900      1.34559000      0.10594000
H          -1.94233800      0.25301100     -1.26567200
H          -4.08246100     -0.19240100     -0.12819500
H          -3.27436600     -0.41347800      1.42783100
H          -2.16922300     -2.51441800      0.59343000
H          -3.92627200     -2.61214000      0.36699200
H          -2.87089500     -2.25935100     -1.02512900
