12
b3lypvdz=-157.112684008991 
C           2.56559000      2.29763600     -0.06069000
C           4.04940300      2.04614900     -0.06154500
C           4.69214500      0.87825800      0.08860500
C           4.10092000     -0.49155900      0.28961600
H           1.97129800      1.38842000      0.11695900
H           2.24294600      2.73018800     -1.02632100
H           2.29729900      3.03327100      0.71863800
H           4.66775400      2.94199900     -0.20603900
H           5.79001600      0.90532600      0.06547600
H           2.99947100     -0.49760700      0.27894400
H           4.43430400     -0.91814200      1.25372700
H           4.45035400     -1.18443700     -0.49747100
