14
b3lypvdz=-158.333647404165 
C           2.54257200     -0.32625500     -0.15737900
C          -0.49714200     -0.25137000      0.48503400
C           0.20838700     -1.44065900     -0.17760800
C           1.70414100     -1.56989100      0.16024400
H           2.26207400      0.52972900      0.47718100
H           3.61479500     -0.52305400      0.01276000
H           2.41981800     -0.01834100     -1.21141000
H          -0.10916700      0.71076800      0.11264100
H          -1.57992100     -0.27103600      0.27467300
H          -0.36665700     -0.26704600      1.58220300
H          -0.30119500     -2.37446400      0.12259200
H           0.08921500     -1.36555400     -1.27563100
H           2.11617200     -2.43112900     -0.39583400
H           1.81480700     -1.81599700      1.23343400
