23
b3lypvdz=-276.188011350692 
C           0.41553000      1.04080800     -0.06688100
C           1.88405100      0.94921300      0.39469200
C          -0.49000600     -0.14694500      0.27995300
C           2.58512800     -0.33252900     -0.09933800
C          -1.97118600      0.15038800      0.02989100
C           4.05306100     -0.47141700      0.32184400
C           2.62435000      2.23293500     -0.00902600
H          -0.01827600      1.95265900      0.38493000
H           0.38899300      1.21187100     -1.16217300
H           1.87996600      0.90400100      1.50349700
H          -0.34636700     -0.42248600      1.34206100
H          -0.18945400     -1.03363400     -0.30500100
H           2.02887200     -1.20504600      0.28419600
H           2.50971600     -0.38703300     -1.20340200
H          -2.61009800     -0.71369100      0.27660600
H          -2.31604500      1.00170800      0.64159000
H          -2.15459700      0.41203000     -1.02719000
H           4.16619300     -0.38357700      1.41732100
H           4.45764700     -1.45298300      0.02428600
H           4.69596400      0.29575000     -0.13842200
H           3.63286400      2.29060600      0.42834100
H           2.72795400      2.30391100     -1.10704700
H           2.06823800      3.12356400      0.32887100
