12
b3lypvdz=-194.233259474718 
O           8.22241300     -0.22736700     -1.06517500
C           6.79886700     -0.12011400     -1.07631700
C           4.68063800     -1.48292400     -0.75661700
C           6.21241000     -1.49158300     -0.78201600
H           8.58383200      0.64961500     -1.25244100
H           6.45175400      0.60606300     -0.31088800
H           6.43680600      0.23694800     -2.06408900
H           4.29314400     -0.79122600      0.01091400
H           4.28211500     -2.48531600     -0.53098000
H           4.26236000     -1.16607700     -1.72869500
H           6.57959300     -2.20421400     -1.54169400
H           6.60837100     -1.84380500      0.18719800
