21
b3lypvdz=-274.993805080751 
C           0.38112500      1.03077500      0.12053600
C           1.87980200      0.92781900      0.45046600
C          -0.41480400     -0.24450000      0.47813700
C           2.51183200     -0.31644500     -0.19371100
C          -0.62789200     -0.40965600      1.99110400
C           0.24943300     -1.48551100     -0.15992100
C           1.74945900     -1.60217000      0.16374900
H          -0.06563600      1.90540500      0.62507700
H           0.27539300      1.21198600     -0.96612900
H           2.40128900      1.83525000      0.09870900
H           2.02547900      0.89560700      1.54669900
H          -1.41923800     -0.13452200      0.02856400
H           3.56970700     -0.40845500      0.10927600
H           2.50934900     -0.18913600     -1.29423900
H          -1.09927200      0.48874500      2.42464600
H          -1.29453700     -1.26339000      2.20159100
H           0.31433000     -0.58501400      2.53715200
H          -0.28043700     -2.39893000      0.16355100
H           0.12692300     -1.42920600     -1.25809800
H           2.18086500     -2.45613500     -0.38706300
H           1.89082900     -1.82901900      1.23670500
