15
b3lypvdz=-196.398498542871 
C           4.06726600     -0.39736700      0.26929200
C           4.23171300     -0.93695500      1.70225500
C           6.27006300      0.89175500     -0.05777800
C           4.07932100      2.07605700     -0.07243500
C           4.76398100      0.92878900      0.03618500
H           2.99215700     -0.29214800      0.04480100
H           4.46163400     -1.14445700     -0.44557200
H           3.67760100     -1.88208100      1.82776600
H           5.28769300     -1.13557700      1.95171400
H           3.84074200     -0.21603500      2.43899300
H           6.59432300      0.20521100     -0.86023900
H           6.72401300      0.52451300      0.88011100
H           6.69026200      1.88689100     -0.27033200
H           2.98654800      2.09966500     -0.00974500
H           4.58828300      3.03283900     -0.22341500
