20
b3lypvdz=-236.902758624042 
C          -0.43274400     -0.22144900      0.49981300
C          -1.76644600      0.29172100     -0.11215900
C          -2.99123800     -0.56431800      0.24733900
C          -0.46564300     -0.38389100      2.02779900
C           0.03339400     -1.52385800     -0.16823200
C          -2.03178400      1.76789300      0.22236900
H           0.32580200      0.55038000      0.26366300
H          -1.63401700      0.22499500     -1.20965100
H          -3.87052100     -0.23488900     -0.32989700
H          -2.83692000     -1.63312400      0.02527000
H          -3.24984500     -0.47515200      1.31673500
H          -0.77791500      0.53965400      2.54184800
H          -1.15746600     -1.18570700      2.33585900
H           0.53267600     -0.65534800      2.41060500
H           1.01287300     -1.84175100      0.22624600
H          -0.67385400     -2.35099500      0.01437700
H           0.13247700     -1.39957300     -1.25987600
H          -1.19857700      2.41499800     -0.09984000
H          -2.94355600      2.12772000     -0.28326600
H          -2.17619600      1.92319300      1.30569900
