23
b3lypvdz=-276.19114716886 
C           0.62217600      0.78549200      0.18769500
C          -0.61108500     -0.09777500      0.41027600
C          -1.88498600      0.45111100     -0.24944700
C          -3.15688400     -0.30104900      0.16363200
C          -4.44148100      0.22000600     -0.49598700
C          -5.70694200     -0.48763700      0.00640700
C          -7.00309400      0.03164700     -0.62745700
H           1.51592300      0.35329700      0.66758800
H           0.47054700      1.79242700      0.61360200
H           0.84210000      0.90588300     -0.88716600
H          -0.78286300     -0.20696800      1.49753500
H          -0.41136100     -1.11442100      0.02444400
H          -1.99762800      1.52094600      0.01413900
H          -1.77301800      0.40936200     -1.35019400
H          -3.03994700     -1.37573000     -0.07606400
H          -3.26455800     -0.23499600      1.26359200
H          -4.53274500      1.30778000     -0.30595800
H          -4.36654200      0.09614200     -1.59408600
H          -5.61655600     -1.57320000     -0.19056800
H          -5.76873400     -0.37249400      1.10556700
H          -7.88106200     -0.50338300     -0.22940900
H          -7.14427500      1.10728600     -0.42138100
H          -6.99768400     -0.10422500     -1.72355900
