15
b3lypvdz=-196.415595683217 
C           0.41505000      0.98762000      0.08647400
C          -0.47005100     -0.22362400      0.42217700
C          -1.86536000      0.20676800     -0.07341300
C          -0.47033700      2.19992300      0.44636200
C          -1.93754100      1.73631600      0.19741100
H           1.37580500      0.98543800      0.62588100
H           0.64231300      0.99039800     -0.99459600
H          -0.48590500     -0.38135600      1.51593700
H          -0.11879900     -1.15916600     -0.04299400
H          -2.68098000     -0.35049000      0.41371100
H          -1.94616400      0.01330000     -1.15730700
H          -0.33262600      2.45742600      1.51040600
H          -0.20661200      3.09777800     -0.13432800
H          -2.39463600      2.26621600     -0.65332100
H          -2.56675600      1.95495300      1.07539800
