20
b3lypvdz=-236.903064260623 
C          -0.54390000     -0.29646000      0.47324400
C           2.57405500     -0.27954000     -0.05425300
C           4.07774800     -0.50731900      0.12298100
C          -0.64716100     -0.37117300      1.99812800
C           0.25742000     -1.43714700     -0.17358600
C           1.74261900     -1.54040900      0.21533300
H          -0.10815500      0.67614600      0.18061200
H          -1.56054800     -0.30509900      0.04143500
H           2.24503900      0.53523700      0.61527200
H           2.37587000      0.07674100     -1.08327700
H           4.31397100     -0.84901400      1.14637500
H           4.44989900     -1.28014700     -0.57106200
H           4.65552200      0.41257000     -0.06550400
H          -1.30326700      0.42092000      2.39371100
H          -1.07013000     -1.33852500      2.32355700
H           0.33509800     -0.26058600      2.48708800
H          -0.23465900     -2.39751600      0.07144600
H           0.18718900     -1.33305500     -1.27250600
H           2.18413800     -2.38036000     -0.35248500
H           1.84245200     -1.81946300      1.28129200
