17
b3lypvdz=-197.61520933281 
C          -0.48499000     -0.21020200      0.47100800
C          -1.83841800      0.17961700     -0.15774300
C          -3.09122400     -0.56763100      0.33354800
C          -3.16034300     -2.06830400      0.02905900
C           0.21894100     -1.42848700     -0.14044000
H           0.19462600      0.65632100      0.37428600
H          -0.61859900     -0.36706600      1.55907700
H          -2.00684200      1.25284500      0.04718900
H          -1.76221800      0.09180600     -1.25984500
H          -3.97153400     -0.07667600     -0.11982300
H          -3.19240300     -0.41190600      1.42482900
H          -2.38333700     -2.63856200      0.56082300
H          -4.13372600     -2.48751000      0.33483900
H          -3.03492400     -2.27032200     -1.04934600
H           1.20064100     -1.59452000      0.33323100
H          -0.36538500     -2.35399600     -0.02455400
H           0.39573300     -1.28060700     -1.22073900
