17
b3lypvdz=-197.618410099493 
C           0.31924000      0.97683000      0.03356400
C           1.78711000      0.98981100      0.48663300
C          -0.44141400     -0.28795600      0.49235000
C          -0.55432200     -0.50229800      2.00806200
C          -0.39085500      2.27979400      0.43067900
H           0.32186700      0.94040800     -1.07376900
H           2.30343500      0.05628700      0.20295500
H           2.33204700      1.82617900      0.01787900
H           1.87962600      1.11008300      1.58062000
H          -1.45889800     -0.25581000      0.06105300
H           0.04842500     -1.17155000      0.04253600
H          -1.05900000      0.34210000      2.50657000
H          -1.14553400     -1.40778200      2.22532400
H           0.43278400     -0.63344100      2.48103700
H          -1.43972100      2.28413900      0.08789900
H          -0.38932700      2.43097600      1.52473600
H           0.11103700      3.15143000     -0.02222700
