23
b3lypvdz=-276.18953761473 
C           0.51902900      0.83655200      0.04879800
C          -0.57893900     -0.13652800      0.50278500
C          -1.94229900      0.28230000     -0.08694700
C          -3.16814800     -0.56805900      0.29922100
C          -4.44618400      0.01138100     -0.32579900
C          -0.59692000     -0.24617400      2.03285000
C          -3.00818900     -2.04686700     -0.08682700
H           1.51351200      0.50181700      0.38888900
H           0.34719900      1.84533000      0.46567300
H           0.55155200      0.93023400     -1.04960700
H          -0.32219400     -1.13191500      0.09322900
H          -2.13797000      1.33265200      0.20516900
H          -1.85671200      0.28537400     -1.19148400
H          -3.28810000     -0.51069200      1.39792800
H          -5.33541600     -0.55680200     -0.00491700
H          -4.59677300      1.06424000     -0.03307400
H          -4.40529000     -0.02798500     -1.42953400
H          -0.88769800      0.71468600      2.49549800
H          -1.30074000     -1.01304600      2.39204900
H           0.40188900     -0.51237000      2.41771100
H          -2.14568200     -2.51995200      0.40865300
H          -3.90285800     -2.62808600      0.19369900
H          -2.86887100     -2.15558900     -1.17806500
