20
b3lypvdz=-236.904517721425 
C           2.48673100     -0.35535600     -0.23126200
C           3.99843600     -0.46300700      0.01183800
C           0.17403400     -1.42329100     -0.02071400
C           1.68815400     -1.63215000      0.06191000
C           4.73715100     -1.48264100     -0.86039300
C           6.24653000     -1.49777400     -0.60924600
H           2.08886600      0.45967600      0.40071600
H           2.30185900     -0.04187600     -1.27750200
H           4.17470000     -0.71119400      1.07741400
H           4.45545000      0.53171500     -0.14797200
H          -0.16453600     -0.65800400      0.69862600
H          -0.37943500     -2.35108600      0.19859900
H          -0.12976300     -1.07967500     -1.02544200
H           1.98826500     -2.43008700     -0.63998700
H           1.95355200     -2.00063600      1.07163400
H           4.33108800     -2.49379000     -0.67624700
H           4.53804300     -1.26038700     -1.92647300
H           6.69936800     -0.51286100     -0.82105200
H           6.76135300     -2.24001400     -1.23936400
H           6.47265300     -1.74296200      0.44341900
