23
b3lypvdz=-276.18851005459 
C           1.93441800      0.94845200      0.53218400
C           2.46057000     -0.27258400     -0.23707600
C           3.97623700     -0.43203500      0.00167300
C           0.17911200     -1.51541700     -0.13488400
C           1.69072200     -1.56368500      0.11009600
C           4.69023800     -1.47054000     -0.86975100
C           6.19942100     -1.52626400     -0.62105000
H           0.88068500      1.16366000      0.29422700
H           2.52079400      1.84839700      0.28179900
H           2.00773700      0.79864500      1.62487200
H           2.31184800     -0.07590100     -1.31869200
H           4.14442100     -0.67651900      1.06999800
H           4.45976600      0.54933700     -0.16379000
H          -0.33103400     -0.78871000      0.51689700
H          -0.28154400     -2.49905200      0.05513500
H          -0.04937700     -1.23823400     -1.17935300
H           2.11090400     -2.39423500     -0.48214100
H           1.88424800     -1.81828900      1.17041300
H           4.26353300     -2.47295100     -0.69011600
H           4.49819500     -1.23981800     -1.93500500
H           6.67757800     -0.55015600     -0.81619500
H           6.69173700     -2.27004100     -1.26739300
H           6.42119100     -1.79865800      0.42565000
