18
b3lypvdz=-235.68214521773 
C           2.53649300     -0.35702700      0.02786800
C           4.06381500     -0.42609400      0.09418500
C           4.59778300     -1.44042800     -0.93600700
C           6.26411500      0.90325500      0.19167000
C           4.13128400      2.07409200     -0.27589900
C           4.76785900      0.92134700     -0.02227500
H           2.11941800      0.33102000      0.77869900
H           2.10337500     -1.35377900      0.20976100
H           2.19154500     -0.02136900     -0.96550600
H           4.33477900     -0.81747200      1.09630100
H           5.68261300     -1.60194700     -0.83953100
H           4.10249700     -2.41632500     -0.80483500
H           4.39733700     -1.09472000     -1.96561500
H           6.79450400      0.40519300     -0.63836500
H           6.53438600      0.34365600      1.10530400
H           6.66565400      1.92339400      0.28060800
H           3.05443800      2.13234300     -0.44476700
H           4.68650200      3.01466000     -0.33519700
