23
b3lypvdz=-276.190416765494 
C           0.56536400      0.78401500      0.03204200
C          -0.60636500     -0.10441100      0.47181900
C          -1.94439000      0.46305800     -0.03973500
C          -3.18701100     -0.36739000      0.30458800
C          -4.44983100      0.10021500     -0.42811400
C          -5.70886300     -0.67951000     -0.04597300
C          -0.58514600     -0.30250600      1.99312400
H           1.53413100      0.32799200      0.29654100
H           0.52131200      1.77057900      0.52633800
H           0.55937100      0.95770300     -1.05713200
H          -0.47058500     -1.09748200     -0.00025300
H          -2.07308100      1.49211500      0.34999900
H          -1.87758500      0.56222400     -1.13927300
H          -3.00035600     -1.43065100      0.05706700
H          -3.37107700     -0.33413400      1.39432800
H          -4.60928200      1.17611100     -0.22386100
H          -4.28380800      0.01789800     -1.51911800
H          -6.59032000     -0.31327100     -0.59673900
H          -5.60346800     -1.75573300     -0.26993000
H          -5.92537100     -0.58591200      1.03255400
H          -0.76825900      0.65195000      2.51936500
H          -1.34787700     -1.02024100      2.33176400
H           0.39459600     -0.68281800      2.32750200
