14
b3lypvdz=-158.335262860235 
C          -0.46130300      2.28413700      0.31926600
C          -1.84376900      1.63656200      0.39082600
C          -1.83008700      0.13390300      0.09109300
C          -3.21321000     -0.51247700      0.17188300
H          -0.02082400      2.17854600     -0.68809900
H           0.24051100      1.81382100      1.02911400
H          -0.50143900      3.36079500      0.55340500
H          -2.52558400      2.14002000     -0.32038400
H          -2.28764500      1.80320000      1.39110800
H          -1.13856000     -0.36848500      0.79289900
H          -1.40273100     -0.03199800     -0.91657500
H          -3.92416500     -0.02070000     -0.51369300
H          -3.18128600     -1.58156500     -0.09589900
H          -3.63600700     -0.43515900      1.18915700
