21
b3lypvdz=-274.965632115268 
C           2.48240400     -0.31463400     -0.02030400
C           3.96910000     -0.34444200      0.38388700
C           4.15073700     -0.71117700      1.87204700
C           1.82155400     -1.69666000     -0.04942100
C           6.21105700      0.74727000     -0.22425200
C           4.17406500      2.14715200      0.02165700
C           4.73876200      0.93208700      0.05512600
H           1.92348000      0.35227800      0.66188200
H           2.40175500      0.14032800     -1.02258200
H           4.44491900     -1.14969000     -0.21103900
H           3.76536200     -1.71948000      2.09227800
H           5.21010700     -0.68433900      2.17191500
H           3.60632900      0.00565900      2.50925600
H           0.79821400     -1.63570400     -0.45409700
H           2.38893700     -2.39012200     -0.69471600
H           1.75593500     -2.15808800      0.95004200
H           6.36588900      0.06281700     -1.07820400
H           6.73761100      0.28351100      0.62898900
H           6.70532700      1.70320100     -0.45362700
H           3.11123400      2.30765800      0.21533400
H           4.77322100      3.03527700     -0.19837000
