20
b3lypvdz=-236.903063896388 
C           0.34149000      1.01074200     -0.02657400
C           1.82233000      0.99758700      0.40721800
C          -0.39701300     -0.27468000      0.40056500
C          -0.40714300      2.24885900      0.49216100
C           2.60259500      2.28117400      0.08811200
C           0.13748000     -1.58452800     -0.19619700
H           0.31666100      1.05161600     -1.13605800
H           2.33059600      0.14924300     -0.08252600
H           1.87979800      0.80406100      1.49699000
H          -1.46114100     -0.17199600      0.11838200
H          -0.37847000     -0.34531500      1.50601200
H          -1.46894300      2.21717100      0.19503200
H          -0.36701500      2.31007700      1.59547300
H           0.01553500      3.18199900      0.08870000
H           3.67317900      2.15733400      0.32423300
H           2.52250300      2.54521400     -0.98152000
H           2.23710200      3.13957700      0.67379500
H           1.15620900     -1.81683700      0.15657000
H          -0.50781800     -2.43088300      0.09340800
H           0.15966400     -1.54451600     -1.29977700
