23
b3lypvdz=-276.190656133335 
C          -0.63018500     -0.41165400      0.49565600
C          -1.81167100      0.32880600     -0.14882700
C          -3.15095900     -0.31368900      0.25809500
C          -4.39832800      0.23873000     -0.44282000
C          -5.69579400     -0.44992900     -0.00345900
C          -6.94895900      0.07108000     -0.71434200
C          -1.75231500      1.82706400      0.18601800
H           0.33203800      0.01396200      0.16496100
H          -0.66534400     -0.33815100      1.59836400
H          -0.63084000     -1.48294500      0.23162700
H          -1.71323300      0.21865200     -1.24785000
H          -3.09069900     -1.40029600      0.05389300
H          -3.27289300     -0.21309400      1.35585600
H          -4.48913700      1.32514400     -0.25298800
H          -4.28164400      0.12025000     -1.53876200
H          -5.60619000     -1.53960100     -0.17766100
H          -5.81451800     -0.32013600      1.08970300
H          -7.85477800     -0.44252800     -0.35299700
H          -7.08709700      1.15322000     -0.54178200
H          -6.89083000     -0.08755800     -1.80608200
H          -0.76759900      2.24977900     -0.07731700
H          -2.51189300      2.41048400     -0.35703300
H          -1.90913300      1.99630900      1.26744700
