23
b3lypvdz=-276.185028183863 
C           0.45192700      1.11141300      0.13055000
C          -0.45297700     -0.08366700      0.48394200
C          -1.86358700      0.22471000     -0.09195300
C          -2.99111300     -0.76315000      0.21924900
C          -0.51748400     -0.22317000      2.01804700
C           0.08613800     -1.39313800     -0.15679600
C           1.55476100     -1.74581500      0.11050500
H           1.47218600      0.99165300      0.52647200
H           0.04064700      2.04145400      0.55816600
H           0.52699700      1.25183400     -0.96153500
H          -2.16653300      1.22722600      0.26221100
H          -1.76161800      0.31047700     -1.19004800
H          -3.91104600     -0.46213100     -0.30821000
H          -2.75439500     -1.79008500     -0.10308500
H          -3.22689700     -0.79534000      1.29560200
H          -0.93630100      0.68708100      2.48097100
H          -1.14722300     -1.07154200      2.33042700
H           0.48349800     -0.37892900      2.45236000
H          -0.54478600     -2.23266400      0.18427200
H          -0.06588000     -1.32923200     -1.25055800
H           2.24446600     -0.99883800     -0.31390500
H           1.80638500     -2.71395700     -0.35274500
H           1.77863600     -1.82929000      1.18686300
