17
b3lypvdz=-197.61769157331 
C          -0.54680400     -0.28543100      0.50696800
C          -1.87519200      0.21434900     -0.08790500
C          -3.13531500     -0.57060400      0.31444200
C          -0.51031200     -0.34904500      2.03661500
C          -3.09025800     -2.06546900     -0.02540500
H           0.25761700      0.38517600      0.15445600
H          -0.30349400     -1.28115500      0.09366300
H          -2.01749900      1.27482800      0.19399600
H          -1.78734400      0.20142500     -1.19115600
H          -4.00142400     -0.11067200     -0.19427600
H          -3.32371700     -0.44530300      1.39652000
H          -0.75162500      0.62983200      2.48784600
H          -1.23020600     -1.08125800      2.43791300
H           0.48910500     -0.64556400      2.39622700
H          -2.29186400     -2.59066000      0.52423900
H          -4.04009100     -2.56240700      0.23356400
H          -2.91038000     -2.22744100     -1.10310900
