20
b3lypvdz=-236.903581596263 
C           0.48634400      0.99637700      0.10245300
C          -0.48961800     -0.14009400      0.45869900
C          -1.89040500      0.24560700     -0.09086700
C          -3.05439800     -0.68989800      0.24673400
C          -0.52089900     -0.30686700      1.98960800
C          -0.00015300     -1.45194600     -0.18675300
H           1.51435900      0.75790800      0.42344100
H           0.19014000      1.93739200      0.59725200
H           0.50601100      1.18362700     -0.98476000
H          -2.13680600      1.26124700      0.27017300
H          -1.80646600      0.32771800     -1.19060900
H          -3.97287000     -0.35342100     -0.26134700
H          -2.86743600     -1.72664100     -0.07821600
H          -3.26703700     -0.71087500      1.32824400
H          -0.87479900      0.61281400      2.48692600
H          -1.18270000     -1.12977500      2.30283600
H           0.48713200     -0.53151800      2.37836300
H           1.00934500     -1.71276500      0.17338400
H          -0.66304200     -2.29753400      0.05735600
H           0.04569600     -1.36605900     -1.28601500
