20
b3lypvdz=-236.904705642482 
C          -0.48334000     -0.19865500      0.46953500
C          -1.78609400      0.34656600     -0.13560200
C          -3.06492200     -0.41583300      0.23265400
C          -4.31780200      0.18272100     -0.41810700
C          -5.61266400     -0.56357000     -0.09502300
C          -0.09251300     -1.59850600     -0.01744900
H           0.33254700      0.50589000      0.22584000
H          -0.56167700     -0.19670700      1.57374400
H          -1.90413100      1.40140700      0.17576600
H          -1.68718100      0.36499000     -1.23889100
H          -2.97790900     -1.47635500     -0.06956200
H          -3.18576500     -0.41820000      1.33399300
H          -4.41483800      1.23969200     -0.10565200
H          -4.17372800      0.20224900     -1.51514900
H          -6.48043200     -0.09118100     -0.58332300
H          -5.57265600     -1.61113500     -0.44158500
H          -5.80791600     -0.58120500      0.99124300
H           0.85119400     -1.93335300      0.44316700
H          -0.85891800     -2.35251300      0.22701100
H           0.04714600     -1.61280200     -1.11301000
