19
b3lypvdz=-273.779055310945 
C           1.88470600      0.93693700      0.48260300
C           2.52518300     -0.31000700     -0.13763100
C           4.02390400     -0.39211900      0.19504300
C           2.57855500      2.22364600      0.00616200
C           6.25371500      0.85899300     -0.02210200
C           4.08191500      2.09248900     -0.05369500
C           4.74846400      0.92970800      0.03146400
H           0.80867800      0.97818600      0.23817000
H           1.95865000      0.86874700      1.58492000
H           2.01184800     -1.22025500      0.21734100
H           2.39504400     -0.28068100     -1.23581800
H           4.16182100     -0.74727100      1.23664100
H           4.50437300     -1.15491900     -0.44471600
H           2.20118300      2.51023900     -0.99666300
H           2.30646300      3.06119600      0.67436800
H           6.59072600      0.23469000     -0.87008300
H           6.66269300      0.39408900      0.89482500
H           6.70831700      1.85634600     -0.13045300
H           4.64806400      3.02348700     -0.18467500
