9
b3lypvdz=-154.947944438873 
O           8.21282200     -0.22316800     -1.06378600
C           6.78889900     -0.12313900     -1.07567300
C           6.22250000     -1.50108400     -0.77989800
H           8.57049300      0.65400300     -1.25817400
H           6.43796400      0.60252400     -0.31178400
H           6.42668000      0.22951200     -2.06429700
H           5.11947100     -1.48309500     -0.78841000
H           6.56761300     -2.23030200     -1.53088000
H           6.56175800     -1.85305100      0.20870200
