20
b3lypvdz=-236.905801903316 
C           0.51466600      1.11336100      0.03814200
C           1.89984500      0.74147500      0.58414400
C          -0.56971100      0.07152400      0.34856300
C          -1.94936300      0.43171800     -0.22581600
C          -3.08134200     -0.48185200      0.26037100
C          -4.44884200     -0.13993600     -0.34580100
H           0.20625700      2.08891200      0.45763000
H           0.58109700      1.25486800     -1.05678900
H           2.24868600     -0.21717900      0.16293400
H           2.64989600      1.50925700      0.33026100
H           1.88477500      0.63879300      1.68356200
H          -0.64855800     -0.05139500      1.44590600
H          -0.25708200     -0.91159800     -0.05114000
H          -2.19356900      1.47819000      0.04255300
H          -1.90285500      0.39607600     -1.33130800
H          -2.83102700     -1.53311100      0.02164100
H          -3.14408100     -0.41731900      1.36311900
H          -5.23799400     -0.80065100      0.04884400
H          -4.73729800      0.90066600     -0.11509500
H          -4.43930000     -0.25000000     -1.44482200
