20
b3lypvdz=-236.903311644469 
C           1.92202700      0.98600200      0.46236100
C           2.50570300     -0.28668000     -0.18116500
C           3.98270000     -0.49783600      0.18823300
C           2.59905300      2.30032500      0.06174500
C           0.21780600     -1.53405300     -0.22423200
C           1.69377100     -1.54538100      0.18960200
H           0.85253400      1.05554600      0.19785300
H           1.95986900      0.87400900      1.56424200
H           2.44007500     -0.16260300     -1.28196900
H           4.10731400     -0.56678200      1.28445400
H           4.36906800     -1.43404700     -0.24871100
H           4.62826000      0.31954600     -0.16918700
H           3.65075400      2.34894600      0.38945300
H           2.58357100      2.43885600     -1.03397700
H           2.07960500      3.16139000      0.51264000
H          -0.36326400     -0.76276400      0.30548000
H          -0.26039700     -2.50305300     -0.00439500
H           0.10436300     -1.34574100     -1.30686600
H           2.18667900     -2.41583300     -0.28006300
H           1.77171000     -1.70954600      1.28200200
