17
b3lypvdz=-197.619894706673 
C           0.49462800      0.86743900      0.03529100
C          -0.59152700     -0.10665100      0.50741900
C          -1.96493400      0.28512600     -0.07171700
C          -3.09384600     -0.70366600      0.22359500
C          -0.60139700     -0.20419700      2.03772500
H           1.49471000      0.54887800      0.37367700
H           0.31756400      1.88095200      0.43805200
H           0.51810900      0.94598800     -1.06437900
H          -0.34085800     -1.10880900      0.10571900
H          -2.24181400      1.28886400      0.30432300
H          -1.85983800      0.39152900     -1.16670400
H          -4.01457300     -0.42285000     -0.31316300
H          -2.82328200     -1.72581400     -0.09475600
H          -3.34015700     -0.74601100      1.29725700
H          -0.87527600      0.76495600      2.49375100
H          -1.31716600     -0.95496700      2.40605400
H           0.39346000     -0.48346500      2.42295500
