23
b3lypvdz=-276.182903616176 
C          -0.57932800     -0.39652900      0.60523500
C          -1.82969500      0.18185900     -0.12218000
C          -3.14872700     -0.49655600      0.33655300
C          -4.39886100      0.08411500     -0.34760100
C          -3.12105700     -2.01918400      0.13090100
C           0.29112900     -1.31525900     -0.26296300
C          -1.87397700      1.71063000      0.03788200
H           0.04827000      0.43737900      0.96630200
H          -0.89381300     -0.93664300      1.51621800
H          -1.71887600     -0.03425700     -1.20449600
H          -3.24576100     -0.30303100      1.42482400
H          -5.29943100     -0.47009500     -0.03332600
H          -4.56457700      1.14325400     -0.09651700
H          -4.32885400      0.00324700     -1.44815600
H          -2.27917200     -2.50083400      0.65088200
H          -4.04543700     -2.48235200      0.51456500
H          -3.04616100     -2.27205800     -0.94213600
H           1.12849000     -1.74490300      0.31280000
H          -0.29121300     -2.15267100     -0.68239800
H           0.72373500     -0.75800300     -1.11266600
H          -0.92385400      2.16243400     -0.29427200
H          -2.67552500      2.17827600     -0.55338300
H          -2.02470600      1.99498000      1.09523100
