18
b3lypvdz=-235.682217605968 
C           2.42221000     -0.33856300      0.09571300
C           3.94103700     -0.42458000      0.22587500
C           6.90994500      0.10150500     -1.14661300
C           6.23372600      0.72407700      0.08819700
C           4.15811100      2.00739100     -0.39350000
C           4.72608900      0.84418300     -0.04310200
H           2.00360500      0.44052600      0.75273400
H           1.95439200     -1.29556500      0.37702800
H           2.11195400     -0.10653100     -0.93634500
H           4.20545600     -0.77286500      1.24308000
H           4.31846600     -1.21930600     -0.44500300
H           6.52280500     -0.90870500     -1.35999100
H           7.99905100      0.01633800     -0.99516500
H           6.73711600      0.72124900     -2.04140200
H           6.47693400      0.10933000      0.97376100
H           6.66507400      1.72243000      0.26931200
H           3.07998100      2.12059400     -0.52715200
H           4.76994800      2.89669400     -0.57012700
