20
b3lypvdz=-236.902050872185 
C           1.89502800      0.90146200      0.45379500
C           2.55527500     -0.33231200     -0.19352600
C           4.02609100     -0.57526100      0.22523500
C           4.27871400     -0.75547400      1.72577800
C           2.54465600      2.24453500      0.11802100
C           1.69937200     -1.58390000      0.04480700
H           0.84001800      0.92652300      0.12574600
H           1.85927200      0.76807700      1.55088700
H           2.56911600     -0.14852100     -1.28587500
H           4.37841000     -1.47589700     -0.30921900
H           4.65714400      0.25044500     -0.14942600
H           3.65664700     -1.55272200      2.16372400
H           5.33114600     -1.02203800      1.91669700
H           4.06941300      0.16534000      2.29566000
H           3.58311300      2.30999700      0.48286300
H           2.56619100      2.41575300     -0.97244200
H           1.98872300      3.07986700      0.57305000
H           0.68387100     -1.46018500     -0.36552200
H           2.14635000     -2.47025500     -0.43461000
H           1.59414900     -1.80593300      1.12055800
