20
b3lypvdz=-236.905944672574 
C           0.28974100      0.96155500      0.01529600
C           1.78506400      0.89333100      0.34473900
C           2.51711600     -0.29165700     -0.29034100
C           3.99479000     -0.38812300      0.10535300
C          -0.39499800      2.20362100      0.59204600
C           4.75302100     -1.50631400     -0.61100700
H          -0.21202500      0.05136700      0.39465300
H           0.15863000      0.93781600     -1.08340700
H           2.26925400      1.83445500      0.01681800
H           1.91280300      0.85991100      1.44474600
H           2.00403700     -1.23257600     -0.00858400
H           2.43766700     -0.22525900     -1.39332700
H           4.06399100     -0.54072600      1.19957200
H           4.48852900      0.58192100     -0.09635800
H          -1.46066700      2.25198000      0.31385100
H          -0.33586600      2.22113600      1.69490600
H           0.08514000      3.12731100      0.22449400
H           5.78823400     -1.59556100     -0.24353100
H           4.26158200     -2.48370400     -0.46007400
H           4.80085800     -1.32468200     -1.69954800
