19
b3lypvdz=-310.870031569253 
C           4.05998500     -0.45617600      0.47727000
C           6.77927600     -0.09337100     -1.14200000
C           2.61473000      2.27472900     -0.10901000
C           6.24659400      0.79002700     -0.00391600
O           8.19567000     -0.05825100     -1.22396700
C           4.08991800      1.99807500     -0.13571700
C           4.73683400      0.84161100      0.10273100
H           2.99605400     -0.33188900      0.72214200
H           4.55721900     -0.91389900      1.35056500
H           4.12674100     -1.19831500     -0.33885000
H           6.52022400     -1.15071600     -0.96932100
H           6.30470600      0.20727300     -2.09900200
H           2.01319600      1.41014000      0.20707400
H           2.25412900      2.58641000     -1.10677900
H           2.38371600      3.11150800      0.57357300
H           6.68929000      0.41707500      0.93883600
H           6.63357300      1.81318300     -0.16145300
H           8.45338700      0.85337900     -1.42454600
H           4.71396000      2.86390800     -0.39383100
