17
b3lypvdz=-197.619928895506 
C           0.28971900      1.01049200      0.08338300
C          -0.44895800     -0.28550000      0.46771500
C          -0.55156700     -0.46835100      1.98902800
C          -0.44437000      2.30675100      0.45182900
C           0.22145800     -1.50984900     -0.17658500
H           1.29104200      1.00811300      0.55339900
H           0.46205300      1.00440400     -1.00845100
H          -1.47768700     -0.21489400      0.06244300
H          -1.10562900      0.35377200      2.46957600
H          -1.07737400     -1.40538700      2.24000100
H           0.45156300     -0.51397900      2.44967100
H          -1.45439100      2.32883500      0.00705800
H          -0.55320100      2.42590100      1.54299300
H           0.10212800      3.18787600      0.07669500
H           1.26248300     -1.62189500      0.17662300
H          -0.31859200     -2.43805600      0.07519800
H           0.24632200     -1.42373400     -1.27657700
