23
b3lypvdz=-276.189819144442 
C          -0.56835900     -0.36091900      0.49069700
C          -1.82317700      0.30002600     -0.10148100
C          -3.14792400     -0.37515700      0.26932500
C          -4.36871800      0.21706700     -0.44240800
C          -5.68978200     -0.43727700     -0.02534700
C          -6.92248300      0.12703300     -0.73520700
C          -0.54105500     -0.44682500      2.01943700
H           0.31452800      0.20603100      0.14445300
H          -0.45763800     -1.37665800      0.06685300
H          -1.85939200      1.36231400      0.20978500
H          -1.72407500      0.30589600     -1.20344000
H          -3.08442600     -1.45640900      0.03488300
H          -3.30480900     -0.30568500      1.36235000
H          -4.41810700      1.30533400     -0.23932200
H          -4.24095100      0.11288600     -1.53813100
H          -5.62690600     -1.52631500     -0.21409100
H          -5.81371300     -0.32210000      1.06876300
H          -7.84298800     -0.36903800     -0.38687700
H          -7.03481400      1.20926300     -0.54624900
H          -6.86287500     -0.01517500     -1.82893700
H          -0.67029300      0.54689900      2.48359400
H          -1.33868400     -1.09808700      2.41226600
H           0.41774000     -0.85830500      2.37568300
