23
b3lypvdz=-276.188214464951 
C           0.37040900      1.08941300      0.18112000
C           1.86492900      0.90369400      0.49227400
C          -0.54621000     -0.11525600      0.45247000
C           2.53495700     -0.29616100     -0.18769000
C           4.06059100     -0.30002700     -0.03526000
C          -0.56618200     -0.59723900      1.90562500
C           4.72329400     -1.57708400     -0.55572300
H          -0.00021200      1.95513500      0.76095200
H           0.26200700      1.37204100     -0.88240200
H           2.39289900      1.82711700      0.18826400
H           2.01622900      0.82302900      1.58485000
H          -1.57138600      0.16539200      0.14974800
H          -0.26286100     -0.95391000     -0.20915600
H           2.12983600     -1.23543500      0.23203200
H           2.27503800     -0.31349700     -1.26419900
H           4.31826500     -0.15908600      1.03135900
H           4.48016100      0.57892700     -0.55876800
H          -0.86888100      0.21066100      2.59443400
H          -1.27853600     -1.42766900      2.04149000
H           0.42157800     -0.95785800      2.23826800
H           5.81326500     -1.56844400     -0.38718600
H           4.31758100     -2.46861800     -0.04770400
H           4.55462800     -1.71262400     -1.63849800
