23
b3lypvdz=-276.186163963314 
C           1.87464500      0.89882800      0.54209300
C           2.49518600     -0.31938600     -0.15844400
C           4.00945600     -0.47846800      0.16392100
C           4.29017800     -0.80479900      1.64019100
C           1.66624900     -1.58535900      0.11095600
C           4.68296600     -1.48614400     -0.78854800
C           6.21096900     -1.54203500     -0.71212500
H           0.84488900      1.07048600      0.18743900
H           2.45737700      1.81337500      0.33825500
H           1.82421700      0.77072000      1.63693100
H           2.44019100     -0.12040300     -1.24639800
H           4.46438400      0.51067300     -0.04625900
H           3.97694000     -1.83215700      1.89602400
H           5.36353600     -0.71992900      1.87178500
H           3.76086600     -0.11904700      2.31908100
H           0.62087900     -1.44102800     -0.20971600
H           2.05539700     -2.45764400     -0.43720800
H           1.64862600     -1.84233500      1.18419600
H           4.28003400     -2.49766300     -0.59547000
H           4.38771900     -1.23124700     -1.82301000
H           6.66173000     -0.55106400     -0.89598800
H           6.61650800     -2.23420300     -1.46732300
H           6.56705700     -1.89267200      0.27011900
