23
b3lypvdz=-276.188892054733 
C           0.36634200      1.02016800      0.14083900
C           1.82640600      0.80332800      0.57010400
C          -0.56042800     -0.18218000      0.34749300
C           2.53860300     -0.36501000     -0.12012900
C           4.04968200     -0.47135800      0.16182700
C           4.34917900     -0.74085300      1.64331400
C           4.68719800     -1.54716100     -0.72565100
H          -0.03419000      1.88000700      0.70677700
H           0.33979600      1.31999700     -0.92377900
H           2.39148500      1.73255300      0.36367200
H           1.86005200      0.66325600      1.66622900
H          -1.60828600      0.08743700      0.13354600
H          -0.51688400     -0.55333700      1.38743600
H          -0.29876300     -1.02608300     -0.31136300
H           2.06438200     -1.32021800      0.17803700
H           2.39189000     -0.27873900     -1.21405500
H           4.50877500      0.50218500     -0.10468000
H           3.89794600     -1.69748700      1.96499800
H           5.43513600     -0.80696300      1.82432700
H           3.95354000      0.04879800      2.30054900
H           5.76978900     -1.64072900     -0.53617200
H           4.22958600     -2.53486400     -0.53429000
H           4.55156600     -1.31844700     -1.79652900
