21
b3lypvdz=-274.987014456861 
C           0.42674400      1.15299100      0.03451600
C          -0.32660900     -0.13846100      0.40854100
C          -1.78138800      0.17803600     -0.00889300
C          -0.54540200      2.28680000      0.41355700
C           0.21191900     -1.43698000     -0.20210500
C          -1.97287600      1.70193400      0.20905300
C           1.66407300     -1.76210400      0.16268500
H           1.40024800      1.24967400      0.54002500
H           0.62229900      1.15856000     -1.05476000
H          -0.29210400     -0.23651700      1.51319700
H          -2.51748400     -0.42916400      0.54103400
H          -1.90270000     -0.07140400     -1.07879700
H          -0.39778300      2.56471200      1.47094400
H          -0.37291300      3.19970800     -0.17748900
H          -0.43901300     -2.27241300      0.11505500
H           0.11190400     -1.37970300     -1.30360400
H          -2.47967700      2.16287400     -0.65361000
H          -2.60911800      1.90611300      1.08508400
H           2.36019600     -0.99197200     -0.20831900
H           1.97968900     -2.72375500     -0.27407400
H           1.79829500     -1.83062900      1.25626000
