20
b3lypvdz=-236.906007662138 
C           0.31996300      0.80043900      0.03678800
C           1.81333800      0.85316100      0.37428800
C           2.60328900     -0.35355400     -0.14330000
C           4.08246800     -0.33622400      0.25114400
C          -0.46750900      2.03175800      0.49658400
C          -1.96739700      1.93465700      0.20840500
H          -0.12597000     -0.10577900      0.49053500
H           0.19780700      0.67540400     -1.05743000
H           2.25119700      1.78170400     -0.04135100
H           1.93663900      0.93123400      1.47265100
H           2.13184400     -1.28233400      0.22990500
H           2.51370000     -0.39468500     -1.24567800
H           4.20779200     -0.40175300      1.34621800
H           4.63535700     -1.17606500     -0.19959100
H           4.57518000      0.59505600     -0.08011200
H          -0.30539100      2.18300800      1.58081500
H          -0.05206700      2.93146200      0.00511300
H          -2.41694500      1.06177400      0.71263500
H          -2.16265200      1.82310300     -0.87262700
H          -2.51144700      2.82853100      0.55511000
