8
b3lypvdz=-79.764217002591 
C           0.38650700      0.99320200      0.05913200
C           1.86149300      0.95009800      0.47676900
H          -0.15839700      0.10351500      0.41729300
H          -0.12196200      1.87985200      0.47332900
H           0.28110100      1.02975800     -1.03874300
H           2.36996300      0.06344900      0.06257000
H           2.40639700      1.83978500      0.11860800
H           1.96689900      0.91354200      1.57464300
