21
b3lypvdz=-312.087674305879 
C           1.73065400      0.80720500      0.62691500
C           2.44467600     -0.33925700     -0.09067200
C           3.97394000     -0.24645000     -0.03818600
C           6.98521200     -0.16620200     -1.04598000
C           4.66569700     -1.30006600     -0.91047100
C           6.18348200     -1.42452600     -0.73149700
O           8.36467200     -0.51257800     -0.96373700
H           0.63441400      0.70124000      0.56950500
H           1.99506100      1.78107400      0.17956900
H           2.00658500      0.85154500      1.69493700
H           2.12653800     -1.30464300      0.34512600
H           2.12020200     -0.36855500     -1.14783100
H           4.31099100     -0.35621200      1.01118700
H           4.28471600      0.76700600     -0.35473500
H           6.73222600      0.64148800     -0.32962100
H           6.71694700      0.20406500     -2.05954500
H           4.21739300     -2.28684800     -0.69141500
H           4.43097300     -1.09229800     -1.97240100
H           6.56241100     -2.22345700     -1.39156600
H           6.41983200     -1.73578500      0.30176700
H           8.88117700      0.28195400     -1.15945000
