23
b3lypvdz=-276.189560986958 
C           0.32987900      0.81034300      0.00562000
C           1.82478900      0.85961100      0.33604100
C           2.61249300     -0.33518100     -0.21368900
C           4.07400100     -0.40768400      0.25349200
C           4.23381300     -0.81663800      1.72160100
C          -0.45033300      2.04054800      0.48093800
C          -1.96171000      1.91323500      0.28281500
H          -0.11018100     -0.09715700      0.46229800
H           0.19667400      0.68830200     -1.08730500
H           2.26202700      1.79622100     -0.06194600
H           1.94140700      0.91675000      1.43468500
H           2.09892900     -1.27318200      0.07710800
H           2.58199800     -0.30414600     -1.31841200
H           4.62108500     -1.12778500     -0.37991400
H           4.56231200      0.57119400      0.08280000
H           3.78396300     -1.80954200      1.90145500
H           5.29505300     -0.87349800      2.01389200
H           3.74244500     -0.10820800      2.40806300
H          -0.23128200      2.21836700      1.55091900
H          -0.07688700      2.93455800     -0.05224100
H          -2.36619400      1.05281600      0.84346100
H          -2.21702800      1.75944700     -0.78016500
H          -2.49875300      2.81122900      0.62948500
