23
b3lypvdz=-276.187088162914 
C           0.38360600      0.98931100      0.06088500
C           1.87773000      0.92725000      0.44791900
C          -0.50011600     -0.19806300      0.47858300
C           2.57465700     -0.32859400     -0.11321100
C           4.06619500     -0.45032500      0.23372700
C          -0.55753700     -0.44486000      1.99137600
C           2.56474600      2.22981100      0.00434100
H          -0.04554700      1.90967400      0.49974900
H           0.31129100      1.11675700     -1.03706000
H           1.94695200      0.87937000      1.55246400
H          -1.52374800     -0.00302700      0.11025500
H          -0.16906500     -1.11860300     -0.03456300
H           2.06058100     -1.22626500      0.27230400
H           2.44982700     -0.35162900     -1.21347700
H           4.22941100     -0.38442800      1.32393300
H           4.46778700     -1.41964200     -0.10640900
H           4.67059100      0.33606400     -0.24578500
H          -0.87453500      0.46530200      2.53032400
H          -1.27869200     -1.24277400      2.23437600
H           0.42072200     -0.75117800      2.39804600
H           3.59539300      2.30623700      0.38576100
H           2.60232700      2.30462100     -1.09752300
H           2.01282300      3.10779300      0.38048500
