18
b3lypvdz=-235.702705219332 
C           0.44087800      1.05285400      0.09719500
C          -0.39613500     -0.20391800      0.40677600
C          -1.80566300      0.19594400     -0.08170800
C          -0.48689500      2.22924400      0.46122700
C           0.13200000     -1.50256900     -0.20413200
C          -1.93474800      1.71911200      0.19169700
H           1.39654100      1.07875000      0.64542200
H           0.68169400      1.07067100     -0.98227900
H          -0.42745000     -0.32377800      1.50774100
H          -2.60082000     -0.39214000      0.40400800
H          -1.87850700     -0.00414200     -1.16636900
H          -0.36831300      2.48060700      1.52891500
H          -0.24845000      3.14276800     -0.10550500
H           1.14622100     -1.73552100      0.16113300
H          -0.51748800     -2.35751700      0.04805200
H           0.17747300     -1.43191300     -1.30583800
H          -2.39709400      2.23602100     -0.66406700
H          -2.58534300      1.91512800      1.05923100
