5
b3lypvdz=-40.480470577104 
C           0.38637400      0.99314000      0.05850400
H           1.41512800      0.98453200      0.44914300
H          -0.14986400      0.10438500      0.42222100
H          -0.12998100      1.89879400      0.40942600
H           0.41084300      0.98515000     -1.04179400
