21
b3lypvdz=-274.969433450256 
C           0.29315000      1.06389700      0.19323800
C           1.81443700      0.87331400      0.21386500
C          -0.47874400     -0.22062500      0.50106400
C           2.58868500      2.14606900     -0.13620800
C           6.33060700      0.91438900      0.12587600
C           4.09237600      2.03657900     -0.16357300
C           4.83049200      0.96824600      0.16290200
H           0.01191600      1.84813200      0.92032100
H          -0.01350500      1.45101400     -0.79652500
H           2.08962600      0.07264000     -0.49689400
H           2.12196000      0.51186000      1.21289500
H          -1.56876800     -0.06073500      0.45604000
H          -0.23657600     -0.60067100      1.50903100
H          -0.22876800     -1.01932300     -0.21762200
H           2.24585800      2.51887100     -1.12175800
H           2.31058200      2.95166100      0.57173000
H           6.68890200      0.11186200     -0.54287700
H           6.74916900      0.69133600      1.12429600
H           6.76641300      1.86454800     -0.22309000
H           4.61671200      2.94555200     -0.49020900
H           4.33017500      0.05118400      0.49449900
