20
b3lypvdz=-236.903649134107 
C          -0.54357000     -0.29892900      0.50634600
C          -1.86298500      0.19834800     -0.11371800
C          -3.14414800     -0.55236600      0.29604100
C          -4.37520000      0.08044700     -0.37233800
C          -0.52913500     -0.34995700      2.03847500
C          -3.07116300     -2.05380300     -0.02445100
H           0.26633700      0.36998300      0.16428300
H          -0.29462300     -1.29825800      0.10501000
H          -1.98898900      1.26865800      0.14130100
H          -1.77003700      0.15669400     -1.21653800
H          -3.27180200     -0.43996400      1.38967600
H          -5.30357000     -0.41634700     -0.04296600
H          -4.46119500      1.15190400     -0.12195600
H          -4.32075100     -0.00529200     -1.47299700
H          -0.78732500      0.63101400      2.47584200
H          -1.24379200     -1.08912600      2.43561700
H           0.47040200     -0.62990100      2.41138200
H          -2.25042600     -2.55621500      0.51193300
H          -4.00679800     -2.56404000      0.26140700
H          -2.91603000     -2.21945000     -1.10614800
