14
b3lypvdz=-158.333868758238 
C          -4.38315900      0.09636500     -0.41962700
C          -5.76260300     -0.41989200      0.01066000
C          -3.06069600     -2.07350500      0.05058300
C          -3.19327100     -0.56484500      0.29448100
H          -4.33902500      1.18611400     -0.23646000
H          -4.26810800     -0.03917800     -1.51258300
H          -6.56494600      0.14880000     -0.48689300
H          -5.90464500     -1.48232200     -0.25059100
H          -5.90424300     -0.31639500      1.10129700
H          -2.15029200     -2.47192900      0.52829900
H          -3.91531100     -2.63504300      0.46224800
H          -2.99913500     -2.29819600     -1.02883800
H          -2.26520200     -0.06577300     -0.03920200
H          -3.27006300     -0.37390000      1.38202600
