14
b3lypvdz=-158.333839713416 
C           1.67996300     -1.60442100      0.05208100
C           2.51912200     -0.32964600     -0.08172700
C           4.29464700     -0.81142800      1.72511700
C           4.00868300     -0.50832100      0.25010600
H           0.63428800     -1.42537800     -0.24901300
H           2.07711800     -2.40962000     -0.59065300
H           1.66463700     -1.98722700      1.08686800
H           2.09767200      0.45925400      0.56958300
H           2.42833600      0.05218100     -1.11463800
H           3.88130000     -1.78475000      2.03856000
H           5.37810600     -0.83140300      1.92897600
H           3.84800700     -0.04334900      2.38021600
H           4.42899100     -1.31261000     -0.38334900
H           4.54933000      0.41151900     -0.03792600
