19
b3lypvdz=-273.775592199288 
C           0.37408000      0.99592000      0.09828400
C           1.87011500      0.93207400      0.43419600
C           2.53901100     -0.31523600     -0.16686700
C           4.02701700     -0.41560000      0.21025600
C           2.59934000      2.21439400     -0.01482700
C           4.10231200      2.07797700     -0.03656200
C           4.74215300      0.90631800      0.07279400
H          -0.16047100      0.10864300      0.47837100
H          -0.10031500      1.88625400      0.54538100
H           0.21595400      1.04353700     -0.99424300
H           1.97008200      0.86156600      1.53530600
H           2.00723700     -1.22347000      0.16859200
H           2.44154000     -0.28053300     -1.26894100
H           4.13154300     -0.77749400      1.25305600
H           4.52440400     -1.17498500     -0.41954600
H           2.24894300      2.51647900     -1.02340100
H           2.31744700      3.04729600      0.65573200
H           4.68371600      3.00044000     -0.15385200
H           5.83879400      0.88602000      0.06137000
