23
b3lypvdz=-276.187167915708 
C           2.49979800     -0.39908200     -0.13513300
C           4.01238700     -0.50979100      0.15664100
C           4.28946200     -0.80506000      1.63997000
C           0.16375400     -1.41710800     -0.11487100
C           1.66371700     -1.67267300      0.05765500
C           4.71698800     -1.50323800     -0.78612100
C           6.24436900     -1.51729400     -0.68341900
H           2.08228100      0.39407900      0.51256300
H           2.36536300     -0.03969400     -1.17323100
H           4.43711900      0.49032900     -0.06042700
H           4.02863100     -1.84432100      1.90637000
H           5.35016200     -0.65513700      1.89585600
H           3.69938700     -0.13997100      2.29126000
H          -0.20118100     -0.67508100      0.61577800
H          -0.42576000     -2.33806400      0.02407200
H          -0.06342300     -1.01923200     -1.11996300
H           1.98835900     -2.44679300     -0.65960500
H           1.84283400     -2.09313100      1.06400200
H           4.33543000     -2.52357200     -0.59510600
H           4.42904600     -1.25741000     -1.82519300
H           6.67005600     -0.51396300     -0.86118800
H           6.68644500     -2.19997100     -1.42639500
H           6.58927500     -1.85242200      0.30838400
