18
b3lypvdz=-235.677837778167 
C           2.54397700     -0.39644700      0.01493200
C           4.06972600     -0.38747600      0.13760000
C           4.70199300     -1.36056400     -0.88847200
C           6.20312400     -1.60926800     -0.72609400
C           4.05559200      2.14814000     -0.17857500
C           4.68369900      0.99181600      0.06104400
H           2.06611100      0.25874400      0.75935600
H           2.15064900     -1.41501200      0.16262100
H           2.21892300     -0.05831400     -0.98474200
H           4.32963900     -0.78436700      1.14162700
H           4.17093600     -2.32524900     -0.80127800
H           4.49127000     -0.98347400     -1.90671000
H           6.80476500     -0.70674500     -0.92095600
H           6.55014200     -2.38507100     -1.42732600
H           6.44441000     -1.95619500      0.29412000
H           2.97872000      2.20919200     -0.35812900
H           4.60915100      3.09062500     -0.20727000
H           5.76597300      1.02256500      0.23755100
