23
b3lypvdz=-276.185283781068 
C           0.32540400      0.97753100     -0.01526700
C           1.81818600      0.94319200      0.42271200
C          -0.44899100     -0.27460100      0.43046200
C           2.53547200     -0.31872900     -0.10899600
C           4.02560200     -0.43437900      0.24089900
C          -0.40261900      2.24115600      0.47448700
C           2.56016300      2.23014100      0.02625400
H           0.31393700      0.99814900     -1.12455900
H           1.83104100      0.88348500      1.53200500
H          -1.51490900     -0.19068800      0.15940200
H          -0.39330900     -0.41037700      1.52616500
H          -0.06877100     -1.19286800     -0.04122900
H           2.02369000     -1.21065600      0.28685400
H           2.41434800     -0.36122200     -1.20951800
H           4.19351700     -0.33442000      1.32789200
H           4.42019200     -1.41689800     -0.06777100
H           4.63865800      0.32940900     -0.26283300
H          -1.47239700      2.20109800      0.20858500
H          -0.33444400      2.34424500      1.57309900
H           0.00729800      3.15825000      0.02616000
H           3.61164800      2.20601800      0.35086700
H           2.54724600      2.37482200     -1.06971600
H           2.10893900      3.12034300      0.48784700
