23
b3lypvdz=-276.186793307608 
C           0.37100400      1.00044200      0.05838600
C           1.84861600      0.88169800      0.48997700
C          -0.51757400     -0.21044500      0.35220400
C           2.52904800     -0.36219300     -0.11919500
C           4.02386000     -0.56411600      0.18456600
C           4.35991000     -0.74068100      1.66923500
C           2.57936100      2.18968500      0.15402200
H          -0.05467500      1.88546700      0.56491500
H           0.33325500      1.22941000     -1.02490500
H           1.85875000      0.76536300      1.59204300
H          -1.57455500      0.02121800      0.13963600
H          -0.44960900     -0.51368500      1.41227000
H          -0.24677900     -1.08670900     -0.25797600
H           1.99039600     -1.25961400      0.23552800
H           2.38994500     -0.33936200     -1.21754800
H           4.36308200     -1.45661500     -0.37097800
H           4.61344100      0.27556400     -0.22668600
H           3.76104900     -1.54916900      2.12317100
H           5.42350200     -0.99516000      1.81119200
H           4.16360100      0.17586700      2.25091200
H           3.59902800      2.22127400      0.56814700
H           2.65472600      2.33252500     -0.93916000
H           2.03292000      3.05583500      0.56364300
