21
b3lypvdz=-274.960710581108 
C           2.48103800     -0.33529500     -0.02922000
C           4.00083400     -0.43702700      0.24411600
C           4.26560500     -0.88952000      1.70047400
C           1.67854400     -1.63492300      0.10193000
C           4.66503500     -1.43836300     -0.72808800
C           4.15424000      2.10666300     -0.16706900
C           4.69355700      0.90607600      0.06653600
H           2.05365300      0.41379100      0.66060600
H           2.33801400      0.06989200     -1.04673200
H           3.93507700     -1.92779500      1.86733600
H           5.34176800     -0.83838500      1.93620700
H           3.73575700     -0.24050500      2.41552100
H           0.61449600     -1.44608700     -0.11677400
H           2.02067800     -2.40995500     -0.60244900
H           1.73446400     -2.06011800      1.11817400
H           5.75775800     -1.46637800     -0.57816700
H           4.28548500     -2.46097800     -0.57413300
H           4.47704800     -1.15601400     -1.77790500
H           3.07905400      2.26544100     -0.28256800
H           4.79048300      2.99135200     -0.25647500
H           5.78681300      0.84742800      0.16917900
