18
b3lypvdz=-235.684030814764 
C           2.43063100     -0.27028700     -0.02566700
C           3.94755500     -0.31603200      0.17413700
C           1.78613100     -1.65229600      0.13099300
C           6.22375800      0.80908600      0.03309200
C           4.15388700      2.17449000     -0.17721300
C           4.72258800      0.97342100     -0.00347900
H           1.97497800      0.43351000      0.69369900
H           2.20867700      0.12887900     -1.03181500
H           4.17106600     -0.71578800      1.18507100
H           4.37503000     -1.06777400     -0.51846700
H           0.69975900     -1.61597000     -0.05510500
H           2.22072800     -2.37864500     -0.57709600
H           1.93986300     -2.05295700      1.14866200
H           6.56335600      0.11051900     -0.75298100
H           6.55445900      0.37138300      0.99368900
H           6.74601300      1.76718700     -0.10825500
H           3.07075300      2.31445900     -0.21264000
H           4.76756900      3.07261500     -0.29392500
