23
b3lypvdz=-276.189858044 
C          -1.89559700      0.22975100      0.05290100
C          -3.27625800     -0.37443200      0.34708600
C          -4.45303700      0.21331800     -0.44111200
C          -5.78768800     -0.45013800     -0.08061600
C          -6.99420700      0.08985300     -0.84994700
C          -0.29198300      2.19526800      0.30741800
C          -1.73743700      1.70977300      0.42883200
H          -1.13920000     -0.35284100      0.61007200
H          -1.64876500      0.09539700     -1.01824000
H          -3.23320700     -1.46246500      0.15187800
H          -3.48612600     -0.26853500      1.42976000
H          -4.52760200      1.30125200     -0.25399600
H          -4.26647200      0.09631600     -1.52705600
H          -5.70416600     -1.54065900     -0.25067700
H          -5.96370000     -0.32451200      1.00496600
H          -7.92302800     -0.40941200     -0.52850500
H          -7.12498100      1.17393900     -0.68609500
H          -6.89193300     -0.07183000     -1.93762100
H           0.08729700      2.06729600     -0.72171100
H           0.37762800      1.62506600      0.97324400
H          -0.19417600      3.26132100      0.57184500
H          -2.38887500      2.33441000     -0.20806300
H          -2.09278600      1.86486300      1.46563600
