23
b3lypvdz=-276.188993613621 
C           0.29427500      0.94146500     -0.01500100
C           1.77442700      0.82744000      0.40270000
C          -0.53395600     -0.28571100      0.39419700
C           2.52389200     -0.39096200     -0.15679600
C           4.01219700     -0.44508400      0.22965100
C           4.26260800     -0.73674100      1.71511400
C          -0.31492400      2.23306400      0.55251400
H           0.26010700      1.01200000     -1.12106600
H           2.30027700      1.74376600      0.07263300
H           1.82621800      0.82403400      1.50893600
H          -1.59867300     -0.14597600      0.13926200
H          -0.46911100     -0.46681900      1.48295300
H          -0.19562500     -1.19917200     -0.12049400
H           2.03987700     -1.32265800      0.18805500
H           2.43996000     -0.38535500     -1.26002000
H           4.50792400     -1.22574300     -0.37487300
H           4.49910500      0.50955100     -0.04678900
H           3.78773200     -1.68698700      2.01680600
H           5.34222200     -0.81914100      1.92605400
H           3.86086300      0.05760400      2.36554000
H          -1.35820300      2.36505100      0.21896000
H          -0.31344300      2.22105500      1.65786900
H           0.25635100      3.11921600      0.22689700
