20
b3lypvdz=-236.905226934843 
C           1.90914700      0.91532100      0.55767300
C           2.46607100     -0.28509200     -0.21926400
C           3.98477400     -0.41883000      0.00316600
C           1.70804400     -1.57247000      0.13554400
C           4.68197800     -1.49048000     -0.84067800
C           6.19944900     -1.52039800     -0.64753400
H           0.82937600      1.04601400      0.37357100
H           2.41677000      1.84983400      0.26448000
H           2.04869900      0.78967800      1.64694100
H           2.30466400     -0.08804500     -1.29822000
H           4.17251700     -0.62164300      1.07716700
H           4.45749700      0.55935300     -0.20845100
H           0.62386900     -1.45928600     -0.03470900
H           2.04564500     -2.42786400     -0.46989000
H           1.85454400     -1.83484000      1.19959900
H           4.27050700     -2.48538500     -0.59473300
H           4.44834700     -1.31607200     -1.90832500
H           6.65940100     -0.55330400     -0.91683100
H           6.67300200     -2.29521800     -1.27105500
H           6.46539600     -1.73107100      0.40294800
