21
b3lypvdz=-274.997527910112 
C           0.35823000      1.03789500      0.05344200
C           1.84577100      0.94526800      0.44209500
C          -0.42308300     -0.23093700      0.42909400
C           2.48218000     -0.31719300     -0.16647700
C           2.60409100      2.21907000      0.04938500
C           0.21404800     -1.49052800     -0.17819700
C           1.70458000     -1.59859800      0.18036700
H          -0.09799200      1.91974500      0.53764400
H           0.28179900      1.20495500     -1.03932900
H           1.90116400      0.84690100      1.54562000
H          -1.47359900     -0.14073100      0.10067100
H          -0.44285300     -0.33036900      1.53149000
H           3.52634000     -0.41198500      0.18260200
H           2.52839100     -0.20322600     -1.26787800
H           3.66274400      2.17063400      0.35795200
H           2.57805700      2.37326900     -1.04433000
H           2.15786100      3.10853900      0.52510600
H          -0.32303600     -2.39122200      0.16803400
H           0.10158300     -1.46149400     -1.27947000
H           2.15644600     -2.46141900     -0.33929200
H           1.80367800     -1.79967400      1.26447100
