23
b3lypvdz=-276.188266924864 
C           0.34889200      1.20187600      0.18040200
C           1.83164700      0.84423100      0.32525600
C          -0.62366100      0.08096100      0.59905400
C          -2.01407300      0.28559100     -0.03003500
C          -2.96444500     -0.90357300      0.12411000
C          -0.69982700     -0.04819600      2.12677800
C           2.76860200      1.99396500     -0.04187700
H           0.12629100      2.11374500      0.76836300
H           0.15620700      1.47618800     -0.87356300
H           2.05183200     -0.02887200     -0.31680100
H           2.04360400      0.51365700      1.35797300
H          -0.22207000     -0.86996200      0.19270700
H          -2.47500600      1.19551200      0.39924700
H          -1.88038100      0.49754300     -1.10618400
H          -3.88974800     -0.75109100     -0.45364600
H          -2.49207800     -1.83217600     -0.24262800
H          -3.25660600     -1.07839000      1.17202700
H          -1.12265200      0.87190800      2.57110600
H          -1.34028700     -0.88489800      2.44476400
H           0.29327500     -0.20487400      2.57582400
H           3.82738500      1.70432400      0.06348300
H           2.61342700      2.32168800     -1.08505200
H           2.59637300      2.87254500      0.60279000
