14
b3lypvdz=-158.333903838218 
C           0.39878600      1.02414000      0.06510500
C           1.86759800      1.01344600      0.51082700
C          -0.39014600     -0.24744700      0.41978200
C           0.14485400     -1.54133100     -0.20883100
H          -0.10818900      1.88959000      0.52909700
H           0.34869800      1.18890100     -1.02813100
H           2.45077400      0.23679800     -0.00978900
H           2.35113200      1.98156700      0.29612300
H           1.95499100      0.82906200      1.59666900
H          -1.44001300     -0.10555900      0.10387300
H          -0.41221100     -0.36309300      1.52035300
H           1.14917100     -1.79546500      0.16934200
H          -0.51825700     -2.39057500      0.02669800
H           0.20651200     -1.46013400     -1.30872000
