20
b3lypvdz=-236.902794251982 
C          -0.55621800     -0.31295700      0.50327500
C          -1.83315500      0.25892100     -0.14108100
C          -3.11375300     -0.49807200      0.30081200
C          -4.38777100      0.06445500     -0.35660800
C          -3.02381700     -2.01077500      0.03173900
C          -1.91898700      1.76874600      0.14845800
H           0.32423500      0.28502500      0.21332200
H          -0.62266400     -0.29593200      1.60653200
H          -0.35995700     -1.35072500      0.19134100
H          -1.73994600      0.13134500     -1.23886900
H          -3.21336200     -0.35775900      1.39665000
H          -5.26983500     -0.52833800     -0.06106400
H          -4.58387700      1.10704200     -0.06111100
H          -4.31777400      0.03057400     -1.45941900
H          -2.21997500     -2.49203100      0.60897100
H          -3.96587400     -2.51242100      0.31062500
H          -2.84180900     -2.21436700     -1.03920900
H          -0.98004500      2.27399700     -0.13442400
H          -2.72890400      2.25858800     -0.41300100
H          -2.08891300      1.95708500      1.22406300
