20
b3lypvdz=-236.904325315691 
C           1.80279300      0.86159000      0.60919300
C           2.45905600     -0.32190200     -0.10486400
C           3.98876400     -0.31356600     -0.01534900
C           6.95431200     -0.20456400     -1.02587000
C           4.65673200     -1.37710600     -0.89149000
C           6.17966400     -1.49214800     -0.72794100
H           0.70409800      0.83555100      0.51826700
H           2.15027000      1.81932700      0.18432100
H           2.05017300      0.87281100      1.68529500
H           2.07118000     -1.27044000      0.31105600
H           2.16048900     -0.31861200     -1.17012900
H           4.29577500     -0.45744700      1.03947700
H           4.35622700      0.68778400     -0.30646700
H           6.72993200      0.59147300     -0.29756600
H           8.04294600     -0.37841200     -0.99614200
H           6.70559400      0.18705000     -2.02886800
H           4.20314800     -2.36169700     -0.67068700
H           4.41905800     -1.16294800     -1.95191400
H           6.54282500     -2.29239400     -1.39709500
H           6.41096400     -1.83005100      0.29957300
