23
b3lypvdz=-276.18737650468 
C           1.86920100      0.90453000      0.47010500
C           2.62135400     -0.24121000     -0.22534700
C           4.11649500     -0.42403900      0.11182800
C           4.32643900     -0.73261400      1.60121700
C           2.39015100      2.31222700      0.16167400
C           4.71506200     -1.51570100     -0.79730500
C           6.22696600     -1.73444200     -0.68497500
H           0.80945000      0.84520600      0.16236100
H           1.86929600      0.74461300      1.56332200
H           2.10169300     -1.18876500      0.01797300
H           2.52305000     -0.11686700     -1.32059100
H           4.64661600      0.52142700     -0.12030700
H           3.80032300     -1.66288400      1.88395100
H           5.39153700     -0.86232300      1.85071100
H           3.93922100      0.07169700      2.24620400
H           3.41703900      2.46781300      0.53430600
H           2.39629000      2.50642700     -0.92552200
H           1.75517400      3.07982700      0.63300100
H           4.19196200     -2.47028700     -0.59097000
H           4.47205500     -1.25806900     -1.84440500
H           6.78693600     -0.80556800     -0.89297400
H           6.56758600     -2.49040800     -1.41095800
H           6.52930400     -2.08818900      0.31410000
