21
b3lypvdz=-274.962742003446 
C           0.33150700      0.86729300     -0.10892900
C           1.84193400      0.84716500      0.18002100
C          -0.43405200      2.05531300      0.49026500
C           2.58828900      2.12338400     -0.22050100
C          -1.95305400      1.89032700      0.40847200
C           4.08623700      2.09006000     -0.05631300
C           4.82435600      1.07714800      0.40856700
H          -0.10830500     -0.06949600      0.28046900
H           0.16438300      0.84541500     -1.20340300
H           2.29133200     -0.01265800     -0.34674900
H           2.00230000      0.66182200      1.25862200
H          -0.13451700      2.19178200      1.54711600
H          -0.13884700      2.98444300     -0.02909400
H           2.35661500      2.37948200     -1.27456600
H           2.20473600      2.98353300      0.36017700
H          -2.29070000      1.01270900      0.98655000
H          -2.28611400      1.74342600     -0.63388100
H          -2.48367800      2.77002600      0.80789900
H           4.60148900      3.01286400     -0.35510800
H           4.38435900      0.12949800      0.73013600
H           5.91123200      1.16626600      0.48985000
