17
b3lypvdz=-197.618819680786 
C           0.29577100      1.07061300      0.05403100
C          -0.39802800     -0.24790900      0.42454000
C          -0.50309300      2.31178800      0.47010800
C           0.24406600     -1.51067900     -0.17643300
C           1.72599900     -1.70381300      0.17173400
H           1.29229400      1.11056900      0.52749200
H           0.46687000      1.10002200     -1.03878700
H          -1.45261800     -0.20281100      0.09307700
H          -0.42423700     -0.34263600      1.52790400
H          -1.48532600      2.33924200     -0.03176800
H          -0.68298500      2.32711200      1.55932100
H           0.03365700      3.23828100      0.20508700
H          -0.32593100     -2.39213800      0.16912600
H           0.12889900     -1.48532200     -1.27713300
H           2.35347700     -0.90244100     -0.25128400
H           2.10377100     -2.65875100     -0.23010900
H           1.88321300     -1.71312700      1.26489400
