23
b3lypvdz=-276.18595353153 
C           1.93106800      0.96419400      0.49387300
C           2.50519900     -0.26388100     -0.24402000
C           4.00929900     -0.44468100      0.05930100
C           2.53828000      2.32072800      0.12460800
C           0.20756600     -1.49341100     -0.24021400
C           1.70391300     -1.54194700      0.08699500
C           4.70501600     -1.61053800     -0.64967700
H           0.84665300      1.01502300      0.29788400
H           2.03679000      0.79946300      1.58433900
H           2.39930900     -0.07980000     -1.33393600
H           4.13473800     -0.55724600      1.15424400
H           4.53715500      0.48580600     -0.20980800
H           3.60512700      2.39719500      0.39209200
H           2.44973600      2.51590200     -0.95861000
H           2.01479300      3.13456000      0.65161600
H          -0.34134900     -0.76488100      0.37629300
H          -0.26248500     -2.47566700     -0.06773600
H           0.03624300     -1.22471400     -1.29759100
H           2.14549600     -2.38640900     -0.46712200
H           1.84066400     -1.77925000      1.15992900
H           5.78374600     -1.61627700     -0.42134300
H           4.30713400     -2.58907900     -0.33731800
H           4.59811000     -1.54079100     -1.74699800
