20
b3lypvdz=-236.903273229351 
C           1.90580700      0.95315500      0.51799800
C           2.47744100     -0.28129300     -0.19893600
C           3.97469700     -0.44975800      0.13292200
C           0.17537600     -1.49046700     -0.18759600
C           1.68021400     -1.56515000      0.10851200
C           4.72334700     -1.49017100     -0.70928600
H           0.88148000      1.18329700      0.18468300
H           2.52568700      1.84249400      0.31210300
H           1.88095800      0.80985800      1.61431300
H           2.39926200     -0.09509000     -1.29099900
H           4.07877500     -0.70717900      1.20569300
H           4.47274400      0.52878100      0.00267600
H          -0.34429400     -0.77900300      0.47384100
H          -0.30005800     -2.47516100     -0.04203600
H          -0.01314100     -1.17919300     -1.23075700
H           2.10714400     -2.39616700     -0.47913000
H           1.82781500     -1.83365000      1.17320300
H           5.79725400     -1.49555100     -0.45622000
H           4.34456600     -2.51205200     -0.54066900
H           4.63522700     -1.26800100     -1.78801500
