23
b3lypvdz=-276.187916006929 
C           0.42619800      1.04200100     -0.04582000
C           1.88409900      0.85810300      0.40542100
C          -0.50238600     -0.14483500      0.24701700
C           2.59669600     -0.37721400     -0.16087200
C          -1.98243300      0.18336800      0.03346900
C           4.06517600     -0.51420300      0.27259900
C           4.25276900     -0.79492500      1.76797200
H           0.02053600      1.93785600      0.45984000
H           0.39399000      1.26706800     -1.12986400
H           2.45880900      1.76006800      0.11966600
H           1.90867200      0.82099200      1.51045800
H          -0.35002300     -0.48198400      1.29040700
H          -0.22057500     -1.00204800     -0.38968500
H           2.05562800     -1.29085900      0.14935400
H           2.54525100     -0.35151300     -1.26578500
H          -2.62692600     -0.68923400      0.23196200
H          -2.31164500      0.99650500      0.70295000
H          -2.17572600      0.51408900     -1.00255000
H           4.53379800     -1.32804600     -0.30840400
H           4.61688900      0.40556000     -0.00277100
H           3.70189200     -1.70240400      2.07275800
H           5.31504500     -0.95003700      2.01914500
H           3.88686600      0.03399200      2.39613300
