23
b3lypvdz=-276.186034867301 
C           2.46255500     -0.35546700     -0.05519800
C           3.98305500     -0.46782700      0.20269500
C           6.89433200     -0.15768400     -1.06869200
C           4.29763400     -0.81573100      1.66721500
C           1.64119700     -1.63925100      0.12443500
C           4.65859400     -1.43142400     -0.79158700
C           6.19562900     -1.48794700     -0.76136500
H           2.05479600      0.42411700      0.61391400
H           2.31393000      0.02195800     -1.08382100
H           4.39271500      0.54260900      0.01295600
H           6.72805400      0.59291200     -0.27803200
H           7.98453500     -0.29356500     -1.16649100
H           6.52577800      0.27397400     -2.01624700
H           4.02955700     -1.85983400      1.90648900
H           5.36908800     -0.69020200      1.89375900
H           3.73887000     -0.16261700      2.35766000
H           0.57676000     -1.44827600     -0.09365700
H           1.97303300     -2.44099500     -0.55523900
H           1.69995400     -2.02973300      1.15526600
H           4.27453000     -2.45342000     -0.61522600
H           4.33719600     -1.15291300     -1.81424300
H           6.51973300     -2.24217200     -1.50062500
H           6.54047500     -1.86931200      0.21683500
