21
b3lypvdz=-274.985809048976 
C           0.39293900      0.99331300      0.13766800
C          -0.51518200     -0.20380000      0.49194900
C          -1.87476400      0.24563500     -0.10970200
C          -3.11691200     -0.54089600      0.30502800
C          -0.53571800     -0.49158300      1.99961200
C          -0.48692900      2.24649100      0.36995300
C          -1.95316100      1.76362800      0.20195900
H           1.32696000      1.01313100      0.72086600
H           0.68045200      0.92641900     -0.92588200
H          -0.16823400     -1.11738300     -0.02266100
H          -1.76477800      0.13550300     -1.20509700
H          -4.01294700     -0.14774000     -0.20375000
H          -3.03393400     -1.60882500      0.03994700
H          -3.30183200     -0.47596500      1.39070300
H          -0.85528000      0.38664900      2.58726100
H          -1.21630100     -1.31925300      2.25458600
H           0.47122400     -0.77104600      2.35165500
H          -0.32678600      2.64483200      1.38571800
H          -0.22955700      3.06280100     -0.32236600
H          -2.48601900      2.30509800     -0.59632300
H          -2.53304200      1.93389300      1.12567500
