17
b3lypvdz=-197.619926469612 
C           0.50256300      1.02558600      0.09766300
C          -0.49307100     -0.10847900      0.37090000
C          -1.89765500      0.26322000     -0.14489700
C          -3.03218000     -0.64761900      0.32910600
C           0.01089900     -1.43701100     -0.21059200
H           1.50766800      0.78157600      0.47974200
H           0.17944300      1.96384900      0.57887700
H           0.59459200      1.22221500     -0.98565800
H          -0.56459000     -0.23171400      1.47064100
H          -2.12258500      1.29929800      0.16872300
H          -1.87436400      0.27670400     -1.25236700
H          -4.00163700     -0.30585400     -0.06894000
H          -2.89662800     -1.69121700     -0.00014500
H          -3.10687300     -0.65100600      1.43084600
H           1.00439100     -1.69443500      0.19252800
H          -0.66641800     -2.27282300      0.02627000
H           0.10014500     -1.37919000     -1.31079700
