20
b3lypvdz=-236.901823560165 
C           0.31967200      0.99423000      0.03731400
C           1.80467000      0.99513700      0.45890000
C          -0.40442600     -0.29337000      0.49341700
C          -0.58312000     -0.47399300      2.00602900
C          -0.42208800      2.26901400      0.46976400
C           2.60079700      2.22406600      0.00689500
H           0.30095000      0.97616200     -1.07071000
H           2.27810900      0.08591300      0.04476500
H           1.88031600      0.90116500      1.55847200
H          -1.40031700     -0.31280200      0.01443400
H           0.14104300     -1.16423100      0.08534900
H          -1.11999500      0.37472100      2.46123300
H          -1.17204600     -1.38066900      2.22197800
H           0.37996600     -0.57565200      2.53230100
H          -1.49345900      2.20863200      0.21200200
H          -0.34638700      2.44409100      1.55718600
H          -0.01617600      3.15952300     -0.03462500
H           3.67211500      2.11358000      0.24352600
H           2.51335000      2.38547800     -1.08252300
H           2.25052700      3.14320500      0.50369100
