23
b3lypvdz=-276.188496926411 
C          -1.90263000      0.19099600      0.05810600
C          -3.23956800     -0.52315700      0.34004400
C          -4.40788800      0.08683200     -0.45937400
C          -5.79618100     -0.46194700     -0.11611200
C          -3.08061700     -2.02900200      0.08618800
C          -0.42353000      2.25115000      0.26844600
C          -1.83087400      1.67619900      0.43449400
H          -1.10536700     -0.34180100      0.60896000
H          -1.65175600      0.07083800     -1.01515500
H          -3.46987900     -0.38047500      1.41621000
H          -4.41618700      1.17798000     -0.29140300
H          -4.21186400     -0.05613900     -1.54083000
H          -6.57965600      0.06784100     -0.68110600
H          -5.89506100     -1.53503400     -0.35051700
H          -6.02020500     -0.33447800      0.95803100
H          -2.25293700     -2.44577600      0.68314700
H          -3.98765200     -2.59895700      0.34175000
H          -2.85080900     -2.22536100     -0.97715500
H          -0.07958300      2.16766100     -0.77773100
H           0.30686800      1.70899700      0.89264300
H          -0.37981400      3.31586800      0.55137600
H          -2.53432700      2.26452000     -0.18079400
H          -2.16808000      1.80724600      1.48048200
