18
b3lypvdz=-235.679461085204 
C           2.43434700     -0.27719500     -0.06882800
C           3.92651900     -0.37878500      0.25158500
C           0.20914000     -1.51914500     -0.28266200
C           1.70453500     -1.62201300      0.02325000
C           4.25170100      2.13660600     -0.01643000
C           4.71485900      0.90443100      0.21943100
H           1.95619400      0.44128500      0.62232600
H           2.30227200      0.14253000     -1.08391400
H           4.05554100     -0.83402500      1.25478400
H           4.40635100     -1.10299900     -0.43624300
H          -0.29651400     -0.82462900      0.40923100
H          -0.29237400     -2.49672200     -0.19596400
H           0.03484700     -1.14147400     -1.30585800
H           2.17721100     -2.34272400     -0.66999200
H           1.84390100     -2.04482600      1.03597700
H           3.19982000      2.33837800     -0.23615400
H           4.92375700      2.99891100     -0.00424100
H           5.78609100      0.78499600      0.43030000
