17
b3lypvdz=-197.619911278496 
C           1.91254900      0.98388000      0.51243100
C           2.49112700     -0.26888500     -0.16454400
C           3.97062000     -0.45768000      0.20522000
C           0.21364300     -1.52224100     -0.22198700
C           1.69885300     -1.55081200      0.15721600
H           0.89313400      1.20821900      0.15876600
H           2.53818000      1.86631700      0.29473000
H           1.87002400      0.86910300      1.61118700
H           2.43245700     -0.11036000     -1.26051100
H           4.08865800     -0.62623600      1.29136400
H           4.40658400     -1.32747000     -0.31443000
H           4.57280800      0.42707700     -0.06268900
H          -0.35080300     -0.77651300      0.36054600
H          -0.25960400     -2.50160600     -0.03952400
H           0.07576500     -1.28022600     -1.29116800
H           2.18605000     -2.39250500     -0.36861000
H           1.80025700     -1.77116400      1.23800500
