23
b3lypvdz=-276.188702939636 
C           0.35017300      0.98314800      0.12202200
C           1.84151300      0.91288300      0.46314500
C           2.53955600     -0.30345100     -0.15661000
C           4.04233300     -0.43961100      0.15924200
C           4.27062200     -0.82643800      1.62824600
C           4.70062600     -1.43450400     -0.81600100
C           6.21999500     -1.58112300     -0.69759400
H          -0.18427700      0.08679400      0.48244000
H          -0.13288300      1.85941300      0.58348800
H           0.18982200      1.04417100     -0.96846200
H           2.34613900      1.83287200      0.11143400
H           1.96195800      0.90072200      1.56116000
H           2.02276600     -1.22738000      0.17293200
H           2.40974500     -0.26144700     -1.25440400
H           4.51317200      0.55046900     -0.01234000
H           3.83534000     -1.82099800      1.83800000
H           5.34051600     -0.86819100      1.88609500
H           3.79922100     -0.10937800      2.31806500
H           4.22467100     -2.42620300     -0.68572100
H           4.45531000     -1.11395700     -1.84481600
H           6.72896400     -0.60885500     -0.81893700
H           6.61142200     -2.25669500     -1.47508700
H           6.52769700     -1.99794000      0.27520300
