23
b3lypvdz=-276.189558465869 
C           0.38380700      1.06572400      0.01317000
C           1.85514200      0.86796600      0.40912600
C          -0.52455200     -0.15296600      0.23020400
C           2.58664100     -0.27698400     -0.29932100
C          -2.01046800      0.18215100      0.07830800
C           4.07020800     -0.36701800      0.08068300
C           4.77810500     -1.58158000     -0.52377300
H          -0.02001500      1.91152700      0.59931700
H           0.32515300      1.37963900     -1.04662300
H           2.39933500      1.81142900      0.21616900
H           1.91411300      0.70222500      1.50236500
H          -0.34332700     -0.57186700      1.23831800
H          -0.25529500     -0.95272600     -0.48159800
H           2.09964800     -1.23882800     -0.05494000
H           2.49466100     -0.15671500     -1.39646200
H          -2.64571100     -0.70718200      0.22170100
H          -2.32592300      0.94074000      0.81458600
H          -2.22972900      0.59389600     -0.92280200
H           4.15789400     -0.40004000      1.18302500
H           4.58590200      0.55937700     -0.23453400
H           5.82655800     -1.64590200     -0.18948600
H           4.27788900     -2.51963400     -0.22632800
H           4.78046300     -1.54373200     -1.62690800
