21
b3lypvdz=-274.989210659979 
C           0.42579400      1.04194600      0.10796400
C          -0.45423100     -0.18970200      0.39412000
C          -1.83070000      0.24394000     -0.16053400
C          -3.02640300     -0.58489200      0.31116600
C          -0.47991800      2.24524900      0.44635200
C           0.07088400     -1.50536300     -0.18230300
C          -1.93567200      1.75412900      0.19168400
H           1.36821100      1.04233000      0.67866000
H           0.69389800      1.04738000     -0.96497300
H          -0.54023500     -0.29900400      1.49470300
H          -1.76768100      0.15185800     -1.26330800
H          -3.96756500     -0.19381800     -0.11069600
H          -2.94322400     -1.64010700      0.00060600
H          -3.11937700     -0.56296600      1.41214100
H          -0.35376800      2.51819800      1.50765200
H          -0.22516900      3.14182600     -0.13962000
H           1.07457000     -1.74145800      0.20876900
H          -0.58795100     -2.35218500      0.07136500
H           0.14016500     -1.45371000     -1.28380800
H          -2.42834900      2.31389900     -0.61976600
H          -2.55957800      1.89805100      1.09062700
