23
b3lypvdz=-276.188490236764 
C           0.51831700      0.90449500      0.13684600
C          -0.59546600     -0.11430400      0.40809300
C          -1.94063900      0.30172100     -0.20615300
C          -3.17273400     -0.50391800      0.25460900
C          -4.44141400      0.06280500     -0.41531400
C          -5.77236600     -0.51180200      0.08759000
C          -3.01275800     -2.01042300     -0.00018800
H           1.47462200      0.57756900      0.57788300
H           0.27002200      1.88962100      0.56855500
H           0.67758000      1.04503700     -0.94636200
H          -0.71173300     -0.24126100      1.50089300
H          -0.28781600     -1.09669500      0.00948300
H          -2.12068800      1.36650700      0.03686300
H          -1.86592500      0.24739600     -1.31059100
H          -3.27475500     -0.34922300      1.34834400
H          -4.45392500      1.15836000     -0.26164100
H          -4.36709200     -0.09493300     -1.50923900
H          -6.62156900      0.01961800     -0.37256500
H          -5.88518600     -1.58040400     -0.16156800
H          -5.86501900     -0.40566700      1.18302600
H          -2.13359300     -2.42128700      0.52115100
H          -3.88594900     -2.57919000      0.35726400
H          -2.89391400     -2.21832200     -1.07927900
