17
b3lypvdz=-197.620730679692 
C           0.38290500      1.11418500     -0.00467300
C           1.84192100      0.97782100      0.45192900
C          -0.49898100     -0.07557800      0.39591200
C          -1.95798600      0.06767900     -0.05732200
C           2.71088300      2.17841300      0.06111800
H          -0.04478600      2.04243400      0.42058000
H           0.35411300      1.23683300     -1.10488700
H           2.27424600      0.05597000      0.02070900
H           1.87013900      0.84788700      1.55033200
H          -0.46674000     -0.19459300      1.49525700
H          -0.07188100     -1.00316700     -0.02813200
H          -2.56775400     -0.79086900      0.27041000
H          -2.41671700      0.98002200      0.36103200
H          -2.03090500      0.13064600     -1.15743900
H           3.74773100      2.05686100      0.41666600
H           2.74324100      2.30754500     -1.03486800
H           2.31557200      3.11261000      0.49597600
