17
b3lypvdz=-197.620646725444 
C           0.35021500      1.01064000      0.14052800
C           1.83986400      0.89299100      0.46786600
C           2.54465200     -0.24443800     -0.27646500
C           4.02982200     -0.38631200      0.07385900
C           4.71872700     -1.54624400     -0.64635900
H          -0.18587500      0.07131400      0.36465100
H          -0.13399400      1.80980500      0.72399200
H           0.18923100      1.23275700     -0.92865600
H           2.34641400      1.84873000      0.23406400
H           1.96781100      0.74289300      1.55669600
H           2.02658200     -1.19793900     -0.05205600
H           2.43839300     -0.09453900     -1.36881800
H           4.13017500     -0.52192500      1.16764100
H           4.55234100      0.56030800     -0.16162300
H           5.76548900     -1.66234900     -0.32130100
H           4.20133900     -2.50083800     -0.44617900
H           4.72421500     -1.39665300     -1.74043900
