23
b3lypvdz=-276.190246259118 
C           0.46735700      1.09139200      0.05340500
C           1.87049800      0.73690700      0.56446000
C          -0.58681200      0.01357000      0.34778800
C          -1.97756800      0.36441800     -0.20806800
C          -3.14161900     -0.51413800      0.29186200
C          -4.47126600     -0.05180300     -0.32667700
C          -2.92201100     -2.01100200      0.02342600
H           0.14260700      2.04593900      0.50763200
H           0.51162400      1.26833700     -1.03747700
H           2.23731500     -0.19681000      0.10427200
H           2.59650300      1.53261000      0.32634100
H           1.87608700      0.59541800      1.65971300
H          -0.65206200     -0.13853600      1.44262900
H          -0.24593700     -0.94612500     -0.08053400
H          -2.20665100      1.41498200      0.05437400
H          -1.94495400      0.32455200     -1.31504200
H          -3.21235700     -0.37212300      1.38866900
H          -5.32116700     -0.62493100      0.07998300
H          -4.65971900      1.01662600     -0.12435700
H          -4.46733300     -0.19168100     -1.42321300
H          -2.03821900     -2.40211000      0.55278300
H          -3.79044000     -2.60222800      0.36032200
H          -2.78517400     -2.20366300     -1.05609300
