17
b3lypvdz=-197.619992882867 
C           0.33151200      1.11254500     -0.02034900
C           1.79198900      0.93597600      0.42124700
C           2.44523600     -0.32597300     -0.17221700
C           2.61205200      2.18471500      0.07640300
C           1.80985000     -1.65683900      0.23776900
H          -0.31326900      0.28172500      0.30754000
H          -0.09459500      2.04220200      0.39312600
H           0.25812400      1.17643100     -1.12229600
H           1.80732300      0.82155700      1.52495700
H           3.50943800     -0.33190100      0.12923100
H           2.44307700     -0.23910800     -1.27695500
H           3.65953300      2.09170500      0.40941300
H           2.62246700      2.35821500     -1.01542200
H           2.18992800      3.08543000      0.55160100
H           0.77698900     -1.75924300     -0.13629300
H           2.38469300     -2.50862400     -0.16044700
H           1.77475200     -1.76461200      1.33659300
