23
b3lypvdz=-276.19001718414 
C          -1.87129600      0.20428700     -0.08020700
C          -3.23676600     -0.40014200      0.28403100
C          -4.43173400      0.20921300     -0.45692100
C          -5.78070300     -0.41171500     -0.07969000
C          -6.96630200      0.21028000     -0.82451800
C          -1.71535700      1.68586600      0.28236900
C          -8.32417200     -0.38872100     -0.45048400
H          -1.08374300     -0.37420200      0.43437900
H          -1.68924400      0.06686300     -1.16299400
H          -3.20904400     -1.48730700      0.07893400
H          -3.39579500     -0.29710600      1.37592300
H          -4.47687300      1.29720500     -0.26089300
H          -4.27648900      0.09630100     -1.54853100
H          -5.75472700     -1.50158800     -0.27787600
H          -5.93592600     -0.29963700      1.01186100
H          -6.98129900      1.29953900     -0.62687200
H          -6.80519600      0.09808000     -1.91410200
H          -0.69626400      2.04531000      0.06259900
H          -2.41187600      2.32839900     -0.27985200
H          -1.90498900      1.85674400      1.35740900
H          -8.53203100     -0.26678100      0.62706900
H          -9.14314000      0.09630000     -1.00540000
H          -8.36433400     -1.46898700     -0.67723600
