17
b3lypvdz=-197.619210671026 
C          -0.45946800     -0.14272200      0.43240000
C          -1.79942500      0.34835800     -0.13956600
C          -3.00805900     -0.53771100      0.18513900
C          -4.32718600     -0.00629800     -0.37916100
C          -0.00494900     -1.51360100     -0.07890200
H           0.31749400      0.60604500      0.19454700
H          -0.52364500     -0.16474100      1.53758000
H          -1.99263400      1.36768500      0.24324800
H          -1.70906300      0.45128700     -1.23899300
H          -2.83977400     -1.55830200     -0.20151500
H          -3.09289900     -0.63976500      1.28399100
H          -5.17319800     -0.65433800     -0.09775700
H          -4.54684600      1.00822800     -0.00344700
H          -4.30558800      0.04935600     -1.48171100
H           0.94546400     -1.82043800      0.38694000
H          -0.74162800     -2.30338500      0.14215100
H           0.14720400     -1.50345900     -1.17274500
