18
b3lypvdz=-235.681457440209 
C           4.27396000     -0.39283400      0.38369600
C           2.49888500      2.22804900     -0.11205800
C           4.68153400     -1.41973500     -0.69541600
C           6.18762400     -1.66971600     -0.80691100
C           3.99648000      2.10818000     -0.10494300
C           4.74212800      1.01146400      0.10295200
H           3.17799200     -0.41605700      0.49798400
H           4.69264000     -0.72670900      1.35306600
H           1.98648000      1.27994700      0.10732900
H           2.13810500      2.58714600     -1.09376000
H           2.15449800      2.97511000      0.62449400
H           4.17598100     -2.37446900     -0.46206300
H           4.28498900     -1.08721300     -1.67198000
H           6.73858800     -0.76413200     -1.11033200
H           6.40858500     -2.44819300     -1.55541600
H           6.61051100     -2.00858300      0.15517300
H           4.53545800      3.04327600     -0.30396200
H           5.83106300      1.14127000      0.05974800
