17
b3lypvdz=-197.620694793975 
C           0.31787900      0.93917500      0.00740200
C           1.79970100      0.88492400      0.40364900
C           2.54072200     -0.34055900     -0.14706500
C           4.02140200     -0.38294200      0.25315000
C          -0.38548900      2.21320400      0.49218900
H          -0.20319600      0.05284700      0.41462300
H           0.23260200      0.86870300     -1.09357600
H           2.30367600      1.80315200      0.04425300
H           1.88244500      0.89911000      1.50779400
H           2.03780000     -1.26074900      0.20502400
H           2.45937600     -0.34577200     -1.25039400
H           4.13712400     -0.43582600      1.34984600
H           4.53152900     -1.25794300     -0.18210800
H           4.55422200      0.51871600     -0.09589800
H          -1.44347400      2.23278200      0.18128300
H          -0.35659000      2.29097000      1.59347400
H           0.10007200      3.11480600      0.08085300
