17
b3lypvdz=-197.618720307652 
C           0.24379800      0.99731100      0.01671700
C           1.70873300      0.88511000      0.46154000
C           2.48139000     -0.32092600     -0.10236200
C          -0.40323100      2.31747500      0.45569200
C           1.84694400     -1.69436800      0.15172000
H          -0.33953100      0.15371400      0.42700700
H           0.18441300      0.91097300     -1.08520600
H           2.24210400      1.80518100      0.15710000
H           1.74772600      0.86261600      1.56877100
H           3.49787700     -0.31203700      0.33030800
H           2.61271100     -0.18412000     -1.19262500
H          -1.45470700      2.37801900      0.12813900
H          -0.38480900      2.42578600      1.55450500
H           0.13042600      3.18254800      0.02574800
H           0.89612200     -1.81443400     -0.39311000
H           2.52018500     -2.49987800     -0.18725800
H           1.64485100     -1.85477000      1.22571400
