15
b3lypvdz=-233.517034937507 
C           4.00730500     -0.49515700      0.23971800
C           6.82537500     -0.09892100     -1.10272000
C           4.66479300     -1.45453900     -0.75961600
C           6.20129100     -1.44176800     -0.75471400
O           8.24530000     -0.26358500     -1.08958000
H           2.91434900     -0.64482600      0.26530400
H           4.39267700     -0.66007400      1.26197100
H           4.18654000      0.56134000     -0.02327200
H           6.51833800      0.67263300     -0.36851800
H           6.47479000      0.22911100     -2.10519800
H           4.33013600     -2.48359300     -0.53581300
H           4.29679100     -1.22652200     -1.77888900
H           6.57716300     -2.18963000     -1.47467600
H           6.57790500     -1.75648200      0.23663200
H           8.63974700      0.58941300     -1.31702800
