23
b3lypvdz=-276.188511914352 
C          -1.87579400      0.20508400     -0.07785400
C          -3.20136600     -0.49256000      0.29263300
C          -4.41628600      0.11139700     -0.44129100
C          -5.77951200     -0.45985900     -0.02259400
C          -6.96525500      0.21860300     -0.72151600
C          -3.06982500     -2.00534600      0.04931700
C          -1.81124000      1.71092500      0.21237000
H          -1.06159700     -0.29481200      0.47768100
H          -1.66434900      0.02883200     -1.15046100
H          -3.36095300     -0.33688000      1.37981900
H          -4.43913500      1.20232300     -0.26290900
H          -4.28392400     -0.02525800     -1.53398900
H          -5.81833000     -1.54354600     -0.23577600
H          -5.89212800     -0.34870000      1.07319800
H          -7.92230700     -0.21549000     -0.38691700
H          -6.99555600      1.30125800     -0.50382400
H          -6.90869100      0.09675300     -1.81808500
H          -2.17456100     -2.40797400      0.55272500
H          -3.93600700     -2.56710200      0.43273200
H          -2.97367500     -2.22526300     -1.02950700
H          -0.79283200      2.09681300      0.03739000
H          -2.49068400      2.29128800     -0.43186300
H          -2.07499300      1.92881200      1.26272300
