17
b3lypvdz=-197.62157175476 
C           0.45799700      1.02914600      0.12327300
C          -0.45243900     -0.17170100      0.43885600
C          -1.86475200      0.09900200     -0.11645700
C          -0.52903500     -0.36891600      1.96402800
C           0.12276400     -1.44555000     -0.21011400
H           1.48005100      0.86980000      0.50709300
H           0.06842800      1.95320300      0.58412300
H           0.52928100      1.20142900     -0.96442300
H          -2.54302700     -0.74752000      0.08530100
H          -2.30713100      0.99861600      0.34420500
H          -1.84220400      0.25756800     -1.20864600
H          -0.92395200      0.53235500      2.46333900
H          -1.19271700     -1.21043400      2.22526100
H           0.46622700     -0.58235700      2.39056500
H           1.13647500     -1.66177100      0.16862300
H          -0.51042500     -2.32190800      0.00989100
H           0.18785900     -1.34496200     -1.30711800
