23
b3lypvdz=-276.188623920395 
C           0.42049900      1.04516600      0.08755900
C           1.89501100      0.87338600      0.48848800
C          -0.54545300     -0.11231200      0.41344700
C           2.57301800     -0.41123600     -0.00942300
C          -1.95607000      0.21822200     -0.09398200
C           4.09071300     -0.39039600      0.18199600
C          -0.57647300     -0.46771700      1.90521300
H           0.03177500      1.96575200      0.56375300
H           0.37172200      1.22876700     -1.00234500
H           2.45380700      1.74145200      0.09163100
H           2.00269500      0.93161300      1.58782100
H          -0.19480000     -1.00587100     -0.13875000
H           2.14880700     -1.28479400      0.51688800
H           2.33822700     -0.56455600     -1.07997400
H          -2.64339400     -0.63450400      0.03563700
H          -2.38139500      1.07413700      0.45965500
H          -1.95043800      0.48967700     -1.16309100
H           4.36072500     -0.25087700      1.24331700
H           4.56246400     -1.32488400     -0.16355200
H           4.55350200      0.43678500     -0.38264300
H          -0.91010600      0.39527000      2.50983900
H          -1.28181600     -1.29296600      2.09920400
H           0.40968000     -0.77831200      2.28441400
