17
b3lypvdz=-197.620742793294 
C          -0.57188100     -0.29662000      0.50105900
C          -1.83321100      0.27092400     -0.16134600
C          -3.12947200     -0.43647000      0.25454400
C          -4.37779700      0.14295700     -0.42469100
C          -5.69027900     -0.51301200      0.02110100
H           0.32935800      0.23989300      0.16085600
H          -0.61888100     -0.20696000      1.60086200
H          -0.43859300     -1.36470000      0.25507900
H          -1.91671100      1.34741500      0.08116000
H          -1.72630900      0.20544900     -1.26099300
H          -3.05150800     -1.51473900      0.01312100
H          -3.24480000     -0.36709600      1.35416800
H          -4.42638100      1.22971000     -0.21963600
H          -4.27397300      0.03577500     -1.52147100
H          -6.55473800     -0.06105600     -0.49248800
H          -5.69616600     -1.59409400     -0.20531000
H          -5.84575700     -0.39507400      1.10788400
