20
b3lypvdz=-236.905240951563 
C          -0.61597900     -0.35036300      0.50878600
C          -1.83522200      0.31583000     -0.14414500
C          -3.14603700     -0.36052800      0.30135800
C          -4.41005900      0.13951200     -0.40800800
C          -5.68601200     -0.59466200      0.01151400
C          -1.82895500      1.82740600      0.12985700
H           0.32234200      0.10058900      0.14457800
H          -0.63497400     -0.23241600      1.60787500
H          -0.57652400     -1.43065500      0.28853500
H          -1.74830200      0.16713200     -1.23958900
H          -3.05367500     -1.45028400      0.12770400
H          -3.26216100     -0.23306800      1.39691200
H          -4.54003000      1.22023800     -0.21704700
H          -4.27314200      0.03319000     -1.50177500
H          -6.56533400     -0.20247400     -0.52474200
H          -5.62355900     -1.67634400     -0.20217600
H          -5.87537700     -0.48010400      1.09335600
H          -0.86901200      2.27865100     -0.17319800
H          -2.62343000      2.35839200     -0.41654100
H          -1.96765900      2.03425800      1.20694700
