20
b3lypvdz=-236.905120953206 
C           0.37791000      1.10031000      0.11201900
C           1.87776100      0.92586200      0.38048500
C          -0.50770300     -0.10527800      0.48364900
C          -1.91955000      0.05485700     -0.09824500
C          -0.57795600     -0.32260200      2.00200000
C           2.69115900      2.17146200      0.02189100
H           0.00974900      1.99252200      0.65631400
H           0.23894100      1.32922800     -0.96151800
H           2.25226900      0.06064300     -0.19790400
H           2.04687700      0.67354400      1.44258300
H          -0.05249200     -1.00678100      0.02816000
H          -2.54841400     -0.82452700      0.11988000
H          -2.42393600      0.93660400      0.33511400
H          -1.89639700      0.18971800     -1.19281700
H          -1.00110900      0.56817600      2.50114600
H          -1.22933500     -1.17542900      2.25474000
H           0.41059100     -0.51670700      2.44711300
H           3.76492800      2.03411500      0.23222800
H           2.58892200      2.42334800     -1.04850600
H           2.34858300      3.04823400      0.59736700
