23
b3lypvdz=-276.184993116064 
C           0.32115600      0.99518600      0.01529800
C           1.81472600      0.92706800      0.41598700
C           2.51128400     -0.32873000     -0.18035300
C           3.99220900     -0.43366000      0.22702100
C          -0.41895800      2.27166400      0.43851600
C           2.55267200      2.22393400      0.04460300
C           1.79614700     -1.64186100      0.18294000
H          -0.20460100      0.12924400      0.44908100
H           0.24030500      0.88088800     -1.08399800
H           1.85766300      0.82833500      1.52164100
H           2.47218200     -0.22107400     -1.28370600
H           4.10643700     -0.43876700      1.32641400
H           4.43018300     -1.37043500     -0.15637200
H           4.60114100      0.39232500     -0.17005000
H          -1.49969300      2.18127700      0.23651300
H          -0.29634800      2.47276200      1.51789300
H          -0.06080900      3.15938100     -0.10598400
H           3.60356500      2.20800000      0.36979500
H           2.53689400      2.38984500     -1.04828600
H           2.08831800      3.09936600      0.52227800
H           0.77937100     -1.69931200     -0.23407000
H           2.35738300     -2.50543000     -0.21143800
H           1.72117400     -1.76730900      1.27837600
