20
b3lypvdz=-236.903913140996 
C           2.46454400     -0.39465000     -0.05393100
C           3.97852100     -0.44560500      0.18794900
C           6.91440600     -0.16420400     -1.04742300
C           4.27067600     -0.83794000      1.64275900
C           4.65069300     -1.38671200     -0.83110100
C           6.18370900     -1.48545500     -0.78415300
H           1.96990000      0.32106500      0.62230600
H           2.00403400     -1.38433100      0.12036500
H           2.22957400     -0.09363000     -1.08877500
H           4.37792200      0.57341000      0.02223000
H           6.74222500      0.57361400     -0.24622400
H           8.00375300     -0.31734200     -1.12396200
H           6.57458000      0.29435200     -1.99315300
H           3.91913600     -1.86608600      1.84760700
H           5.34530800     -0.79625900      1.88245900
H           3.74918800     -0.16688300      2.34408200
H           4.22686600     -2.40130300     -0.69912200
H           4.35097500     -1.06118500     -1.84560100
H           6.49907400     -2.22678300     -1.53987700
H           6.50791600     -1.90137200      0.18666500
