20
b3lypvdz=-236.902245397105 
C           0.28713300      0.97900600      0.00682800
C           1.77454300      0.95894900      0.41079000
C          -0.51026000     -0.26640300      0.45933000
C           2.55011600     -0.28434600     -0.04313300
C          -0.54350800     -0.54044900      1.96917900
C          -0.37361600      2.29090800      0.45959700
H           0.25422900      0.97008200     -1.10178100
H           2.25481100      1.85669400     -0.01990700
H           1.86659000      1.06855500      1.50834300
H          -1.54756600     -0.15840500      0.09234100
H          -0.10806600     -1.15701200     -0.05543900
H           3.62502800     -0.18133200      0.18330900
H           2.19574300     -1.19675200      0.46358900
H           2.44956100     -0.44388000     -1.13166700
H          -0.97660700      0.30297000      2.53216500
H          -1.16233700     -1.42752900      2.18579500
H           0.46326100     -0.73582500      2.37492200
H          -1.43284000      2.33150100      0.15321500
H          -0.33144900      2.41361200      1.55647500
H           0.13653500      3.16095500      0.01265000
