23
b3lypvdz=-276.189932061269 
C          -1.83099000      0.09246000     -0.08283500
C          -3.20878800     -0.44328300      0.31899700
C          -4.37329200      0.18387100     -0.45532200
C          -5.74533600     -0.36154700     -0.04200700
C          -6.91991400      0.29538000     -0.77698500
C          -8.73750500     -0.21987400      0.98730800
C          -8.30109900     -0.31098900     -0.47887400
H          -1.02863200     -0.39189100      0.49650500
H          -1.75690800      1.18079300      0.09096100
H          -1.62775400     -0.09008000     -1.15270800
H          -3.22997400     -1.54054100      0.17284200
H          -3.36378400     -0.27241600      1.40194400
H          -4.35695200      1.28255300     -0.31113400
H          -4.22675100      0.00950700     -1.53981000
H          -5.76897000     -1.45474800     -0.22283600
H          -5.86463600     -0.22251700      1.04901400
H          -6.93818500      1.37538000     -0.52934400
H          -6.73877600      0.23013400     -1.86685600
H          -8.08460300     -0.81162300      1.64880900
H          -8.71680300      0.82443600      1.34610900
H          -9.76365900     -0.60093400      1.12025800
H          -9.04957000      0.19866300     -1.11106300
H          -8.30831800     -1.37103200     -0.79727300
