17
b3lypvdz=-197.619974696856 
C           1.90908000      0.94832600      0.42911800
C           2.54608300     -0.31169500     -0.18668700
C           4.01413500     -0.49795100      0.22763900
C           2.56042100      2.27761300      0.02600800
C           1.72429200     -1.55961800      0.16605400
H           0.84311900      0.97567100      0.13589500
H           1.92332500      0.85484200      1.53287500
H           2.51373700     -0.19340100     -1.28913500
H           4.11209900     -0.55355700      1.32771900
H           4.42408900     -1.43238400     -0.19170700
H           4.65370400      0.32631500     -0.12661200
H           3.59403100      2.36211600      0.40116200
H           2.58730700      2.39175900     -1.07214200
H           1.99465900      3.12991300      0.43717900
H           0.67691800     -1.45787000     -0.16587900
H           2.14097500     -2.46016200     -0.31499300
H           1.71742700     -1.73421600      1.25730500
