21
b3lypvdz=-274.968592866504 
C           4.11972600     -0.45814600      0.24092800
C           4.26692600     -0.93172100      1.70193700
C           2.58038000      2.25748400     -0.00924600
C           4.64283600     -1.52873700     -0.73682300
C           6.28195300      0.93629900     -0.04096800
C           4.07375900      2.05319900     -0.05763500
C           4.77018200      0.90502000      0.03291800
H           3.04060400     -0.35716600      0.04020800
H           3.73078400     -1.88401000      1.85825100
H           5.32403500     -1.09702400      1.97394100
H           3.84976000     -0.19177400      2.40383500
H           2.02078000      1.35431200      0.27638400
H           2.19726800      2.59980400     -0.98940000
H           2.32491300      3.04517900      0.72135200
H           5.70212500     -1.77691400     -0.55156600
H           4.06325500     -2.46111400     -0.62860800
H           4.54883700     -1.19426200     -1.78466700
H           6.65655100      0.41739500     -0.94109700
H           6.74485000      0.43900800      0.83047800
H           6.65789100      1.97055200     -0.07265200
H           4.64848500      2.98001300     -0.19056800
