15
b3lypvdz=-196.39961334159 
C           6.77500700     -0.11869300     -1.09141800
C           2.58713600      2.21001700      0.01961100
C           6.28394200      0.85890000     -0.01250600
C           4.08515600      2.09933600     -0.05857200
C           4.78303700      0.96329900      0.05772400
H           6.39028700     -1.13820000     -0.91272600
H           7.87699200     -0.17421400     -1.10445400
H           6.43742600      0.19690100     -2.09335900
H           2.11534900      1.23231200      0.20930200
H           2.16861100      2.61697600     -0.91956000
H           2.28140000      2.90002900      0.82672800
H           6.66879100      0.52044700      0.97032900
H           6.71602300      1.85894700     -0.19300800
H           4.62986700      3.03885300     -0.22794900
H           4.24047600      0.01999000      0.21815800
