19
b3lypvdz=-273.773572543187 
C           1.87857800      0.96237600      0.47365500
C           2.52528300     -0.30133200     -0.11136900
C           4.02207800     -0.41147000      0.25007300
C           4.25432400     -0.94500500      1.67836900
C           2.58677300      2.23906600     -0.01197600
C           4.08729700      2.09158800     -0.05417400
C           4.72372600      0.91750600      0.05661700
H           0.80960500      1.00196200      0.20127100
H           1.91887400      0.91947200      1.57742800
H           1.98862200     -1.20122500      0.23780700
H           2.42117700     -0.27955200     -1.21199900
H           4.48450200     -1.13923700     -0.44374800
H           3.78995400     -1.93778300      1.81125900
H           5.33188500     -1.04747100      1.89262300
H           3.83187900     -0.26515100      2.43586300
H           2.22569300      2.51559500     -1.02307500
H           2.31624600      3.08789700      0.64199800
H           4.67285100      3.00747300     -0.19931400
H           5.82025400      0.89639100      0.01929200
