23
b3lypvdz=-276.18840122138 
C          -0.49279700     -0.11648700      0.39430300
C           2.63105900     -0.31935900     -0.11810000
C          -1.97400300      0.01295900      0.03261000
C           4.08681200     -0.62086500      0.27018900
C           4.29293700     -0.85822800      1.76970900
C           0.22065600     -1.24144100     -0.36392800
C           1.66964700     -1.50021500      0.07634900
H           0.01434700      0.84439000      0.19621400
H          -0.39468400     -0.29724400      1.48208500
H           2.28303600      0.54947000      0.46899000
H           2.59890700     -0.00211300     -1.17730900
H          -2.52074100     -0.92323000      0.24181200
H          -2.46339700      0.81603300      0.60628000
H          -2.10695500      0.24061500     -1.03946600
H           4.44481200     -1.49869800     -0.29997400
H           4.72390000      0.22324800     -0.04961800
H           3.78767900     -1.77243500      2.12186500
H           5.36190700     -0.95604800      2.01964500
H           3.88801000     -0.01793900      2.36089700
H          -0.35461600     -2.17691600     -0.22841300
H           0.19370100     -1.02091900     -1.44879500
H           2.06158300     -2.36601500     -0.48889200
H           1.66570100     -1.80966100      1.13764800
