12
b3lypvdz=-157.109340726995 
C           4.06370600      2.07196300     -0.06628900
C           4.77876400      0.94933500      0.05590100
C           6.27954200      0.86849800     -0.01951200
C           6.77725200     -0.12198000     -1.08315800
H           2.97172900      2.06245300      0.00311400
H           4.54606600      3.04091700     -0.23467400
H           4.25118100      0.00014000      0.22497800
H           6.67217700      0.55364600      0.96769000
H           6.69363000      1.87216100     -0.22029500
H           6.41347400     -1.14431300     -0.87947500
H           7.87958600     -0.15670600     -1.10571000
H           6.42449300      0.16688700     -2.08767100
