14
b3lypvdz=-158.335349999589 
C          -4.37498400      0.08709800     -0.37962100
C          -5.76947100     -0.45176400     -0.04468200
C          -6.89943100      0.26417400     -0.79147300
C          -8.29378800     -0.28257200     -0.47090000
H          -3.59000700     -0.44790000      0.17805300
H          -4.29065800      1.15926000     -0.12747600
H          -4.15410300     -0.02085600     -1.45620500
H          -5.81124500     -1.53374900     -0.27673400
H          -5.94373800     -0.36192600      1.04517800
H          -6.86563600      1.34370400     -0.54729600
H          -6.71655300      0.18734000     -1.88082600
H          -8.52067300     -0.18899900      0.60572900
H          -9.07734200      0.25756600     -1.02566900
H          -8.37427200     -1.35147500     -0.73777900
