20
b3lypvdz=-236.902154475377 
C          -0.56890300     -0.31902200      0.47720400
C          -1.84081400      0.35038600     -0.09335700
C          -3.11760800     -0.42433300      0.29043400
C          -4.37738800     -0.03108000     -0.48402600
C          -0.50948700     -0.47238800      2.00073100
C          -1.92122400      1.83993000      0.27717300
H           0.30825200      0.26160500      0.13628700
H          -0.46386000     -1.31770600      0.01560900
H          -1.74740200      0.28865900     -1.19579900
H          -2.93015900     -1.50326400      0.13307800
H          -3.30680400     -0.30149400      1.37340000
H          -5.23239500     -0.65831200     -0.18407700
H          -4.66257100      1.01904000     -0.30476100
H          -4.23962600     -0.15850000     -1.57251900
H          -0.60831700      0.49405800      2.52204600
H          -1.30387700     -1.13454300      2.38135200
H           0.45246700     -0.91407800      2.30931800
H          -0.98993500      2.36617800      0.00573100
H          -2.74400600      2.34943700     -0.24797900
H          -2.08244200      1.98582600      1.35955600
