20
b3lypvdz=-236.904743898863 
C          -0.36344900     -0.06079900      0.30769500
C          -1.76055700      0.37485900     -0.18114000
C          -2.87075500     -0.63154800      0.15270200
C           0.09900800     -1.45731400     -0.12768700
C          -2.09867400      1.76534500      0.37650300
C           1.56234000     -1.72712100      0.23213100
H           0.36986200      0.68291200     -0.05740400
H          -0.32720400      0.00568200      1.41328700
H          -1.71280400      0.45508200     -1.28492000
H          -3.84427900     -0.26614600     -0.21560600
H          -2.69500500     -1.61289300     -0.31560700
H          -2.96368100     -0.78915500      1.24191400
H          -0.53894400     -2.22626000      0.34200300
H          -0.04058800     -1.57302800     -1.21903400
H          -1.35047000      2.51663600      0.07415700
H          -3.08393500      2.11354500      0.02416100
H          -2.12355300      1.74896800      1.48122600
H           2.23643200     -1.00768400     -0.26224300
H           1.87687500     -2.73769500     -0.07642900
H           1.72837900     -1.63838700      1.32009100
