19
b3lypvdz=-273.775385720691 
C           4.12755900     -0.43415200      0.23852100
C           6.78657700     -0.12874100     -1.03941900
C           4.64713000     -1.46352500     -0.78433700
C           6.27168700      0.89740200     -0.01091300
C           6.18099300     -1.51836300     -0.79626300
C           4.05050800      2.05006600     -0.11020400
C           4.76056600      0.92480500      0.03672300
H           3.02861600     -0.35735100      0.18909800
H           4.38274900     -0.79620200      1.25565500
H           7.88897500     -0.17367900     -1.00456800
H           6.51150800      0.21567200     -2.05431800
H           4.22676400     -2.45835200     -0.55602900
H           4.28321200     -1.18431400     -1.79143300
H           6.65527200      0.60638500      0.98877800
H           6.66656600      1.90303600     -0.22930200
H           6.53135800     -2.22964100     -1.56380200
H           6.54054500     -1.90802900      0.17643800
H           2.95585900      2.04612300     -0.08334400
H           4.54195400      3.01655900     -0.25898100
