21
b3lypvdz=-274.987115906366 
C           0.42723800      0.95465900      0.13988800
C          -0.54659700     -0.20658200      0.39842100
C          -1.87897500      0.30326400     -0.18627700
C          -3.11534600     -0.49041400      0.25365300
C          -4.43736500     -0.02244400     -0.37007500
C          -0.41021600      2.21096000      0.47031700
C          -1.89184600      1.81875700      0.17607000
H           1.35277100      0.88789400      0.73416700
H           0.71863300      0.95859000     -0.92514900
H          -0.64833700     -0.37421800      1.48741900
H          -0.22043400     -1.15655800     -0.05661600
H          -1.80259600      0.21940100     -1.28910900
H          -2.96089100     -1.55596400     -0.00032600
H          -3.19617800     -0.44531100      1.35783500
H          -5.27458100     -0.65586600     -0.03261500
H          -4.67417600      1.01748900     -0.08829700
H          -4.40366600     -0.07510400     -1.47302600
H          -0.29409900      2.46340700      1.53821800
H          -0.08271700      3.09500200     -0.09927000
H          -2.32157100      2.42123200     -0.63981200
H          -2.51905200      2.00240500      1.06618400
