23
b3lypvdz=-276.18559211601 
C          -0.51630500     -0.04047600      0.43792500
C           2.59857600     -0.50119900      0.02625900
C          -1.93681500      0.22254800     -0.11716700
C          -3.00420500     -0.82516800      0.22316400
C          -0.50964100     -0.13178700      1.97124500
C           0.13290700     -1.26717300     -0.23596500
C           1.56783300     -1.62216000      0.18990100
H           0.08684500      0.84411600      0.15884900
H           2.39778000      0.35119900      0.69590200
H           3.61359200     -0.86740700      0.25479400
H           2.61059100     -0.10768600     -1.00565200
H          -2.28057900      1.20615000      0.25063000
H          -1.86452900      0.31700700     -1.21642300
H          -3.95890300     -0.57430400     -0.26772000
H          -2.72153600     -1.83607600     -0.11408500
H          -3.19763200     -0.87906800      1.30750600
H          -1.02366800      0.73106700      2.42781100
H          -1.01708100     -1.04301800      2.33182800
H           0.51574000     -0.15130200      2.37270900
H          -0.50031400     -2.15454600     -0.05386800
H           0.11727100     -1.10127800     -1.33012100
H           1.89097400     -2.49185200     -0.40974700
H           1.57329600     -1.96958700      1.23882700
