17
b3lypvdz=-197.619915679196 
C           0.36458900      1.11379200      0.03423800
C           1.82706300      0.89295400      0.43646300
C           2.49939400     -0.34983400     -0.18011300
C           3.97730100     -0.42280200      0.23117600
C           1.78895700     -1.66370900      0.17623100
H          -0.29502300      0.31132000      0.40317000
H          -0.02051800      2.06144900      0.44518600
H           0.25196000      1.15597900     -1.06366200
H           2.41775000      1.77999200      0.13989200
H           1.90391100      0.83627200      1.53992400
H           2.45438000     -0.23083700     -1.28121500
H           4.07466300     -0.57082600      1.32225400
H           4.49087500     -1.26291800     -0.26405800
H           4.52003400      0.50171600     -0.02963800
H           0.74924000     -1.68937800     -0.18768200
H           2.31308300     -2.52400400     -0.27250400
H           1.76944300     -1.81946400      1.27013900
