23
b3lypvdz=-276.189477318078 
C           0.39853500      0.95023900      0.02728600
C           1.87478700      0.93159800      0.44802900
C           2.60887800     -0.24112500     -0.23204000
C           4.08639700     -0.48390500      0.13565400
C           4.28101200     -0.75277600      1.63448200
C           2.52076000      2.29626600      0.17142100
C           4.64610500     -1.64708300     -0.69472600
H          -0.09381600     -0.01610400      0.23026100
H          -0.16141200      1.73077100      0.56713100
H           0.29820600      1.15663300     -1.05419900
H           1.90307000      0.75942600      1.54070900
H           2.05027200     -1.16955200      0.00183200
H           2.53648300     -0.11637100     -1.33028100
H           4.66756500      0.42134800     -0.12686800
H           3.67945700     -1.62147600      1.95807700
H           5.33609500     -0.97745500      1.86427500
H           3.98420100      0.10528900      2.25825100
H           3.55161100      2.35970900      0.55561900
H           2.54998400      2.50597700     -0.91332600
H           1.94366200      3.10507900      0.64987000
H           5.70144300     -1.85018600     -0.44660700
H           4.07584800     -2.57410700     -0.50405900
H           4.58885600     -1.43589500     -1.77619000
