23
b3lypvdz=-276.187039711256 
C           0.41024800      1.05365600      0.11148000
C           1.87940500      0.70755800      0.36896500
C          -0.60814900     -0.01879600      0.54956600
C          -1.99529700      0.30701800     -0.04245900
C          -3.14706200     -0.65090900      0.30507300
C          -0.64080900     -0.19444100      2.07248500
C          -2.89900700     -2.12225200     -0.04484100
H           0.15739700      2.00622100      0.61645200
H           0.27458200      1.24177400     -0.96879800
H           2.14301600     -0.26753000     -0.07767700
H           2.54883200      1.46018900     -0.07802000
H           2.11713400      0.65483900      1.44413500
H          -0.27443400     -0.97822000      0.10626900
H          -2.28198800      1.32896900      0.27134500
H          -1.89145500      0.34785700     -1.14318200
H          -4.04562400     -0.30002500     -0.23316000
H          -3.39495700     -0.56767100      1.37853300
H          -0.95716800      0.73959800      2.57222800
H          -1.34450900     -0.98381100      2.37892800
H           0.34806600     -0.46856500      2.47261000
H          -2.06965800     -2.55391900      0.53880500
H          -3.79139500     -2.73601500      0.16273000
H          -2.64856700     -2.24772500     -1.11326600
