17
b3lypvdz=-197.620072114276 
C           1.88928600      0.92215100      0.54122400
C           2.47771700     -0.27853500     -0.21235300
C           3.98057000     -0.42382600      0.09883700
C           1.69129300     -1.56074900      0.09420300
C           4.71660200     -1.50863200     -0.69028000
H           0.82232800      1.06499500      0.30094800
H           2.42085700      1.85383700      0.28327300
H           1.96870100      0.78718500      1.63552000
H           2.37856200     -0.07522200     -1.29789000
H           4.09845000     -0.61770000      1.18371300
H           4.46873100      0.55028300     -0.09001200
H           0.61822900     -1.43592100     -0.12988200
H           2.05021800     -2.41613100     -0.49920000
H           1.78097900     -1.83140500      1.16246700
H           5.78869100     -1.52471300     -0.43358000
H           4.31742200     -2.51453000     -0.48010100
H           4.63736300     -1.33778600     -1.77898700
