23
b3lypvdz=-276.190057819809 
C          -0.47616100     -0.21519800      0.44814300
C          -1.76302300      0.39587400     -0.12981000
C          -3.05757800     -0.34274400      0.23077600
C          -4.31307200      0.26433400     -0.40553600
C          -5.59767200     -0.50169700     -0.07256600
C          -6.85733000      0.07525700     -0.72211200
C          -0.13952000     -1.61427000     -0.08169400
H           0.36458700      0.46545300      0.22221400
H          -0.54963100     -0.24550300      1.55237600
H          -1.84283700      1.44363100      0.21486800
H          -1.67161000      0.44501300     -1.23265400
H          -2.98565700     -1.40191500     -0.07877800
H          -3.17355500     -0.35266700      1.33244900
H          -4.41713700      1.31823200     -0.08175600
H          -4.18486500      0.29486600     -1.50514500
H          -5.47829100     -1.55637200     -0.38545000
H          -5.72918300     -0.52350400      1.02580100
H          -7.75108900     -0.50511300     -0.44014300
H          -7.02752600      1.12050000     -0.41044000
H          -6.78930100      0.06519800     -1.82417700
H           0.78818400     -2.00036800      0.37131500
H          -0.93482800     -2.34545800      0.13904200
H           0.00379600     -1.60204900     -1.17682200
