23
b3lypvdz=-276.18548144811 
C           0.35084000      0.98653000      0.01621500
C           1.82526700      1.01874100      0.47221500
C          -0.41261900     -0.29488700      0.45712200
C          -0.52668000     -0.45893200      1.98301000
C          -0.41213600      2.26111400      0.42185900
C           2.58611500      2.29267500      0.07326000
C           0.15729600     -1.57852500     -0.17411500
H           0.35745100      0.96544000     -1.09301400
H           2.35222800      0.14803100      0.04514000
H           1.88172700      0.90681700      1.57130100
H          -1.44131400     -0.17669000      0.06602700
H          -0.94977200      0.43638100      2.46647200
H          -1.18941100     -1.30511900      2.23112700
H           0.45279300     -0.66456400      2.44704800
H          -1.48073700      2.17968100      0.15904500
H          -0.34354100      2.45639300      1.50661900
H          -0.01780400      3.14779200     -0.09802400
H           3.65574700      2.20461700      0.32833700
H           2.51380200      2.48411100     -1.01241500
H           2.19860900      3.18110500      0.59670400
H           1.15103200     -1.83045300      0.23419200
H          -0.50649100     -2.43574700      0.03049700
H           0.25309800     -1.48511000     -1.26982200
