21
b3lypvdz=-274.969082689326 
C           0.28857400      1.07621500      0.26565100
C           1.80115600      0.85417600      0.18430600
C           6.88234200     -0.13785800     -0.94948500
C           2.56871600      2.14339400     -0.11991500
C           6.32436800      0.92011300      0.01093800
C           4.07117600      2.04225700     -0.18276100
C           4.82074400      0.95739800      0.04854000
H          -0.24678900      0.14370900      0.50634900
H           0.03429400      1.81425800      1.04545800
H          -0.11651100      1.46108900     -0.68662500
H           2.02979800      0.10151900     -0.59110900
H           2.16193600      0.42899800      1.13808200
H           6.51565700     -1.14474800     -0.68429000
H           7.98407800     -0.16402000     -0.91524700
H           6.57525000      0.06578700     -1.98920900
H           2.19897300      2.57138800     -1.07291400
H           2.30833500      2.90732100      0.63953500
H           6.70293900      0.69851100      1.02812900
H           6.71347700      1.91828800     -0.25703700
H           4.58708300      2.97878600     -0.43626800
H           4.33350300      0.00671900      0.29827400
