17
b3lypvdz=-197.619876216709 
C           1.86833900      0.92356500      0.51071200
C           2.53670900     -0.28787400     -0.15323300
C           4.02857800     -0.46519600      0.18989700
C           4.23551300     -0.86043400      1.66023900
C           4.68508500     -1.49213100     -0.74512700
H           0.82323300      1.03092200      0.17550900
H           2.39913200      1.85646600      0.25178800
H           1.85422900      0.83691300      1.61043100
H           1.99131200     -1.20967500      0.12811800
H           2.43274500     -0.19236900     -1.25003500
H           4.53118700      0.50850000      0.02479900
H           3.73558000     -1.82070200      1.88161100
H           5.30754700     -0.97908800      1.89210500
H           3.83141300     -0.10452900      2.35284500
H           5.75623500     -1.62049700     -0.51276900
H           4.19937300     -2.48003000     -0.65051500
H           4.60688900     -1.17803900     -1.80047500
