17
b3lypvdz=-197.619175223041 
C           2.49322800     -0.35177200     -0.19230000
C           3.98966200     -0.45116700      0.13933300
C           0.17545900     -1.42387000     -0.10237300
C           1.68367700     -1.63027800      0.05863800
C           4.77773100     -1.47239600     -0.68418600
H           2.05581000      0.46448500      0.41206200
H           2.36805200     -0.04319900     -1.24913600
H           4.10166300     -0.69252400      1.21437800
H           4.44518900      0.54651000      0.00274800
H          -0.20197200     -0.66128700      0.60039800
H          -0.38790000     -2.35283200      0.08483300
H          -0.07631300     -1.07759700     -1.12059600
H           2.02185900     -2.42760500     -0.62680900
H           1.89627400     -1.99911900      1.08072200
H           5.84613800     -1.45818400     -0.41074000
H           4.41332700     -2.50106000     -0.52312300
H           4.70801500     -1.25810400     -1.76604800
