20
b3lypvdz=-236.903514399357 
C           1.84195600      0.89288100      0.53025400
C           2.52952300     -0.30066100     -0.13914800
C           4.03496300     -0.44127800      0.16338500
C           4.27944900     -0.81017200      1.63384700
C           4.68166900     -1.44723800     -0.80777900
C           6.20502900     -1.57280000     -0.72127800
H           0.79307400      0.98084200      0.20299100
H           2.35040300      1.83750000      0.26813700
H           1.83651600      0.81115600      1.62980500
H           2.01721700     -1.23661500      0.15879500
H           2.39890600     -0.22011500     -1.23367100
H           4.50451300      0.54675900     -0.02441600
H           3.84772500     -1.80242200      1.86112800
H           5.35236300     -0.84723700      1.87991300
H           3.81505900     -0.08425300      2.31900000
H           4.22147500     -2.44205100     -0.64761000
H           4.40966700     -1.14972800     -1.83687600
H           6.69836700     -0.59742100     -0.87791000
H           6.58722600     -2.26164700     -1.49168600
H           6.54059800     -1.96199900      0.25371900
