20
b3lypvdz=-236.903624085783 
C          -0.55739300     -0.22832100      0.52131300
C          -1.86161300      0.19581400     -0.16067600
C          -3.13715100     -0.55329800      0.27324000
C          -4.36722500      0.09320500     -0.39603200
C          -5.73347600     -0.43242400      0.05505600
C          -3.05079000     -2.05976900     -0.01448900
H           0.27583900      0.41432000      0.19313200
H          -0.62518500     -0.14373500      1.62068200
H          -0.27974500     -1.26852900      0.28284900
H          -2.01937900      1.27465100      0.02518900
H          -1.75135000      0.09043900     -1.25829400
H          -3.24507800     -0.41639300      1.36978400
H          -4.32760300      1.18219700     -0.20651800
H          -4.27409400     -0.02807300     -1.49381300
H          -6.54640000      0.13373600     -0.42745400
H          -5.88044800     -1.49441900     -0.20383400
H          -5.86151100     -0.33295300      1.14757400
H          -2.19829700     -2.53007700      0.49974800
H          -3.95639300     -2.59310400      0.31554600
H          -2.93220600     -2.24686800     -1.09790200
