18
b3lypvdz=-235.685351628623 
C           4.26851200     -0.48119700      0.37857100
C           2.61190500      2.11941300     -0.20272100
C           4.36563900     -1.41048400     -0.84344100
C           6.34971700      0.98813000      0.16705800
C           4.10456400      1.99951800     -0.11580500
C           4.84262000      0.90089600      0.13229000
H           3.21674100     -0.41971000      0.69797400
H           4.81605600     -0.94333500      1.21963600
H           2.08551300      1.17062800     -0.02594200
H           2.31023900      2.48352600     -1.20224100
H           2.22601700      2.85946400      0.52008100
H           5.41110000     -1.56111400     -1.15901700
H           3.94188300     -2.40257700     -0.61567000
H           3.81601700     -0.99281600     -1.70229100
H           6.81834200      0.32263700     -0.57873600
H           6.73801800      0.66554100      1.15115200
H           6.70991000      2.00954800     -0.02808900
H           4.65360700      2.93393200     -0.28970900
