12
b3lypvdz=-157.109192529402 
C           4.08471700      2.09161300     -0.09670700
C           4.71963400      0.92365100      0.04612200
C           4.26002200     -0.94186600      1.69297200
C           4.05049000     -0.40854300      0.26494300
H           2.99051900      2.15499000     -0.08988100
H           4.63845700      3.02572200     -0.22745700
H           5.81871300      0.91477600      0.03391400
H           3.77459000     -1.92378300      1.82330400
H           5.33274200     -1.06192500      1.92388900
H           3.83250100     -0.25002800      2.43684900
H           2.96977900     -0.32516900      0.05337400
H           4.45773700     -1.14143700     -0.45712200
