14
b3lypvdz=-158.333863962053 
C          -5.75710400     -0.44678800     -0.00984000
C          -6.88929400      0.26815900     -0.75706400
C          -8.29903400     -0.28344800     -0.48515900
C          -8.76474100     -0.14501800      0.96905900
H          -4.77615400     -0.04420200     -0.31306000
H          -5.75612300     -1.52979800     -0.22743000
H          -5.83948800     -0.32026500      1.08326300
H          -6.86825600      1.34513300     -0.50070700
H          -6.69245100      0.20400400     -1.84342000
H          -9.01358800      0.24488800     -1.14171200
H          -8.33894600     -1.34841900     -0.78385000
H          -8.15165000     -0.74975500      1.65628500
H          -8.71093600      0.90576900      1.30494700
H          -9.80913500     -0.48185900      1.08178900
