20
b3lypvdz=-236.903251116623 
C           0.45624400      1.09567900      0.07957600
C           1.91798700      0.90518500      0.49591900
C          -0.49327000     -0.08436900      0.37093000
C          -1.90455300      0.25324700     -0.15402000
C          -3.03377000     -0.66883600      0.31105300
C           0.02880700     -1.41766500     -0.18559300
H           0.04975400      1.98855900      0.58806900
H           0.41519700      1.32290900     -1.00349800
H           2.41602700      0.11293100     -0.08526500
H           2.49306700      1.83278500      0.33724600
H           2.00591300      0.63787600      1.56410700
H          -0.56202100     -0.19254600      1.47349900
H          -2.14918100      1.28796600      0.14975100
H          -1.87312600      0.26064800     -1.26127500
H          -4.00070700     -0.33446200     -0.09978400
H          -2.88826600     -1.71130900     -0.01721200
H          -3.12343700     -0.67254300      1.41150200
H           0.97260700     -1.71700200      0.29608400
H          -0.69110000     -2.23412100     -0.01659900
H           0.21242900     -1.35253100     -1.27379200
