17
b3lypvdz=-197.619254609624 
C          -1.88574200      0.22284200     -0.07828600
C          -3.22693200     -0.41374700      0.31917000
C          -4.44867200      0.13528800     -0.42629900
C          -5.76008400     -0.55439000     -0.04168800
C          -1.78333100      1.72492200      0.20890700
H          -1.07586200     -0.30149000      0.45921500
H          -1.70226100      0.04015300     -1.15411500
H          -3.16648400     -1.50519300      0.14453400
H          -3.38055400     -0.28586400      1.40955700
H          -4.54221700      1.22017200     -0.23513300
H          -4.28452900      0.02592600     -1.51628300
H          -6.61447200     -0.12972700     -0.59286600
H          -5.72807100     -1.63639200     -0.26112300
H          -5.96785500     -0.44112900      1.03705800
H          -0.77951500      2.11039000     -0.03570600
H          -2.50563300      2.31214900     -0.38074600
H          -1.97408600      1.94398700      1.27480300
