20
b3lypvdz=-236.902067461126 
C          -0.46806200     -0.13690400      0.52327500
C          -1.84283700      0.26040500     -0.06081500
C          -3.00119800     -0.70679300      0.20844300
C          -0.50577000     -0.26983000      2.05367600
C           0.10239000     -1.39627100     -0.15954800
C           1.57979500     -1.67986100      0.13270900
H           0.22085400      0.69564900      0.27699000
H          -2.11740800      1.25831900      0.32632600
H          -1.72207100      0.37975700     -1.15354400
H          -3.91102200     -0.37358900     -0.31729000
H          -2.78211500     -1.72985000     -0.13915100
H          -3.24687800     -0.76571100      1.28193600
H          -0.90216200      0.64394800      2.52900400
H          -1.14866500     -1.10783100      2.37369600
H           0.49629100     -0.45183000      2.47383400
H          -0.50205900     -2.27705200      0.12678900
H          -0.02670900     -1.28038100     -1.25186100
H           2.21319500     -0.81359400     -0.12973500
H           1.94278700     -2.53795200     -0.45588500
H           1.76334400     -1.91082900      1.19504800
