17
b3lypvdz=-197.619999918846 
C           0.35101300      1.00893500      0.00061700
C           1.79902100      1.01670400      0.51276400
C          -0.40553200     -0.27870600      0.37856700
C          -0.40716700      2.25271600      0.48724900
C           0.17419500     -1.57430400     -0.20588400
H           0.38401000      1.05550000     -1.10747700
H           2.39755400      0.20459200      0.07050900
H           2.29963900      1.96707400      0.25895300
H           1.83527700      0.90380900      1.61264900
H          -1.45394900     -0.17801300      0.04138700
H          -0.44364700     -0.36306200      1.48251600
H          -1.43008000      2.28126700      0.07576600
H          -0.48694300      2.26923300      1.58973400
H           0.10518700      3.17892700      0.17572600
H           1.17870400     -1.79319600      0.19347000
H          -0.47058000     -2.43439900      0.04104100
H           0.25099900     -1.51947800     -1.30638700
