20
b3lypvdz=-236.902722133162 
C           0.39375000      1.01895600      0.08692600
C           1.87555000      0.87457600      0.47563600
C          -0.53230100     -0.15270600      0.45245800
C           2.56212500     -0.40812900     -0.01501200
C           4.08014000     -0.37222300      0.16693900
C          -0.60698900     -0.47951300      1.94609100
H           0.00002500      1.94178500      0.55179700
H           0.32800400      1.18094200     -1.00513000
H           2.42154600      1.74544300      0.06759900
H           1.98920800      0.94379800      1.57394600
H          -1.54530700      0.08927300      0.08341500
H          -0.22248800     -1.05562200     -0.10509700
H           2.14856500     -1.28072400      0.52144400
H           2.32206600     -0.57301000     -1.08265500
H           4.35502000     -0.22231300      1.22560200
H           4.55829000     -1.30517000     -0.17404300
H           4.53221800      0.45484000     -0.40648900
H          -0.92871700      0.39716300      2.53517800
H          -1.33037600     -1.28825200      2.14166100
H           0.36577100     -0.80661400      2.34903200
