21
b3lypvdz=-274.997497957619 
C           0.43431000      1.11574700      0.04799800
C           1.90013700      0.93575700      0.47429900
C          -0.43257900     -0.11417500      0.37621300
C           2.51134400     -0.33929400     -0.12828500
C          -1.88280600      0.07144400     -0.08702200
C           0.18739200     -1.39206800     -0.21893400
C           1.66026100     -1.58025800      0.17884000
H           0.00353200      2.01236600      0.52747200
H           0.39313200      1.29472300     -1.04487200
H           2.49278400      1.81742700      0.17394700
H           1.95755300      0.88173300      1.57881300
H          -0.43972800     -0.23069200      1.47912400
H           3.53671600     -0.48983400      0.25240800
H           2.59768100     -0.21235400     -1.22461700
H          -2.50853700     -0.79830000      0.17696500
H          -2.33968500      0.96234300      0.37556300
H          -1.93339400      0.19700800     -1.18391800
H          -0.39597600     -2.27296800      0.10527000
H           0.10160100     -1.35199100     -1.32287200
H           2.07799700     -2.46143700     -0.33831100
H           1.71816500     -1.80127600      1.26171800
