15
b3lypvdz=-196.394054226318 
C           0.32115300      1.05436800      0.19396700
C           1.83806600      0.85464300      0.21661300
C           2.60833700      2.12910900     -0.13704100
C           4.11198600      2.04070900     -0.09586400
C           4.84260200      0.99279900      0.29827500
H          -0.21441300      0.12910300      0.46199400
H           0.00833600      1.83345000      0.90990200
H          -0.03173100      1.36973000     -0.80364900
H           2.12327000      0.05355500     -0.48853500
H           2.14621900      0.50440100      1.21809100
H           2.30216700      2.47561700     -1.14429300
H           2.29379600      2.94970200      0.53808000
H           4.63539100      2.94835900     -0.42385800
H           4.38885000      0.05921900      0.63972400
H           5.93517100      1.03533500      0.29859400
