23
b3lypvdz=-276.191137905025 
C           0.28149300      0.93165500      0.09056900
C           1.79707900      0.89849300      0.31664300
C           2.49597600     -0.30625000     -0.32173200
C           4.00283400     -0.36523800     -0.04862700
C          -0.38103800      2.20212200      0.63135800
C           4.73384600     -1.45126200     -0.84228500
C           6.22639700     -1.54992400     -0.51980100
H          -0.18017000      0.04309500      0.56025000
H           0.07574700      0.83720600     -0.99257600
H           2.24270600      1.82796000     -0.08833700
H           2.00456400      0.91736900      1.40438200
H           2.02185900     -1.23972100      0.03885200
H           2.32577000     -0.28713400     -1.41577200
H           4.16934800     -0.52797400      1.03438600
H           4.45678700      0.61822800     -0.28101900
H          -1.46419200      2.21936400      0.42504600
H          -0.24662000      2.29353400      1.72385200
H           0.05883500      3.10371400      0.17109300
H           4.25255600     -2.42929700     -0.65031500
H           4.60009600     -1.25379400     -1.92301900
H           6.74228400     -0.59057700     -0.70343100
H           6.72685400     -2.31499500     -1.13448800
H           6.39069000     -1.81507300      0.53917200
