18
b3lypvdz=-235.700478888705 
C           0.40269500      1.01060400      0.12937600
C          -0.48417600     -0.20363100      0.48111600
C          -1.86870500      0.22843000     -0.05834600
C          -0.51134900     -0.50974900      1.98560300
C          -0.48722900      2.24469500      0.40040800
C          -1.95139400      1.76441400      0.16823500
H           1.35102700      1.03146000      0.68996100
H           0.66255700      0.96568300     -0.94322200
H          -0.12677500     -1.10844200     -0.04073300
H          -2.69456900     -0.32096600      0.42173500
H          -1.92640600      0.00679400     -1.13768900
H          -0.88915100      0.34338500      2.57538300
H          -1.16975900     -1.36868600      2.19888300
H           0.49494400     -0.75803100      2.36351600
H          -0.35776700      2.58663400      1.44096100
H          -0.21682300      3.09727000     -0.24189100
H          -2.41276800      2.26435200     -0.69789500
H          -2.58405200      2.00868600      1.03670200
