23
b3lypvdz=-276.186162971771 
C           0.38337700      1.13443900      0.06381100
C           1.83228200      0.85504600      0.47670400
C           2.47048300     -0.39433400     -0.16470100
C           3.98342600     -0.49677500      0.18626400
C           4.25684200     -0.82564100      1.66325200
C           1.69096300     -1.68130200      0.15001200
C           4.72799200     -1.47896200     -0.72871400
H          -0.30650400      0.34543500      0.40526700
H           0.02706500      2.08302100      0.49780900
H           0.28329100      1.20944700     -1.03340200
H           2.45645100      1.72848400      0.20911100
H           1.88352000      0.77597400      1.57839900
H           2.42346200     -0.24283300     -1.26205000
H           4.40518200      0.50847600     -0.00998300
H           3.94478000     -1.85434300      1.91422800
H           5.33388400     -0.74530000      1.88572400
H           3.72941400     -0.14436800      2.34861300
H           0.67601600     -1.64978000     -0.27580700
H           2.18691800     -2.56772100     -0.27597300
H           1.58922700     -1.84477900      1.23671300
H           5.80946000     -1.47893800     -0.51126800
H           4.36979500     -2.51459400     -0.59404700
H           4.60017100     -1.21605200     -1.79266100
