12
b3lypvdz=-157.114663736884 
C           2.58288200      2.21713000      0.02636600
C           4.08170100      2.10729600     -0.04416200
C           4.77514200      0.96548300      0.03220600
C           6.27392600      0.85562400     -0.03872400
H           2.10892200      1.23257900      0.17059400
H           2.17202300      2.66284900     -0.89867900
H           2.26969000      2.87330900      0.85876500
H           4.62983000      3.05147300     -0.17305300
H           4.22698000      0.02130400      0.16100800
H           6.58735000      0.19969700     -0.87122300
H           6.68463400      0.40964300      0.88627100
H           6.74792000      1.84021300     -0.18256800
