17
b3lypvdz=-197.618888983119 
C          -0.53989300     -0.26505700      0.43153200
C           2.54708800     -0.27349300     -0.07448400
C           4.04803400     -0.48425400      0.14071500
C           0.23414500     -1.44500900     -0.16552300
C           1.71572200     -1.52453600      0.23924800
H          -0.14942400      0.70236000      0.07486200
H          -1.60571900     -0.30897300      0.15149100
H          -0.48427200     -0.25865300      1.53496800
H           2.20040600      0.56763800      0.55174500
H           2.36538900      0.03614800     -1.12170300
H           4.26558400     -0.78563500      1.18083300
H           4.43963500     -1.27966800     -0.51622300
H           4.62511500      0.43139700     -0.06997000
H          -0.25949200     -2.38811800      0.13173600
H           0.16352100     -1.40254100     -1.26926700
H           2.17178700     -2.38959900     -0.27751400
H           1.79367400     -1.74580900      1.32185400
