17
b3lypvdz=-197.619852794522 
C          -0.51532600     -0.29759600      0.48729300
C          -1.81571800      0.24228300     -0.12904300
C          -3.07081600     -0.52022900      0.33868500
C          -3.06728000     -2.02838700      0.05416500
C          -1.96719500      1.74408600      0.16162000
H           0.34833600      0.30650000      0.16136400
H          -0.55087900     -0.26283900      1.59166700
H          -0.31720200     -1.33937800      0.18667500
H          -1.74350900      0.11706400     -1.22817100
H          -3.95081900     -0.06845400     -0.15490200
H          -3.20997800     -0.35251400      1.42449500
H          -2.28878400     -2.55585200      0.62815700
H          -4.03526200     -2.48077100      0.32841000
H          -2.89433600     -2.23436900     -1.01703900
H          -1.11330600      2.31868600     -0.23473000
H          -2.88390700      2.15173400     -0.29785000
H          -2.02352000      1.93203600      1.24900500
