17
b3lypvdz=-197.61835264781 
C           1.87766900      0.90716200      0.52626900
C           2.51647200     -0.31149200     -0.15829100
C           3.99947000     -0.49993900      0.23464900
C           4.26794600     -0.80950400      1.71475800
C           1.68962300     -1.58671700      0.06601600
H           0.85132600      1.07478500      0.15865900
H           2.45993500      1.82319500      0.32580700
H           1.81602700      0.78187100      1.62149100
H           2.50820500     -0.10898300     -1.24709500
H           4.42663100     -1.30891400     -0.38627400
H           4.55197700      0.41684800     -0.04535400
H           3.82093100     -1.76911200      2.02455200
H           5.35149700     -0.87267300      1.90953600
H           3.86354300     -0.02940200      2.38055900
H           0.66992400     -1.47503500     -0.33986100
H           2.15100500     -2.45552200     -0.43411600
H           1.59412000     -1.83056700      1.13849300
