20
b3lypvdz=-236.900618525605 
C           0.43137900      1.03652900      0.24126300
C          -0.49067500     -0.18794900      0.30649100
C          -1.87016200      0.12763300     -0.32465200
C          -3.09625300     -0.55225300      0.30622400
C          -3.15707400     -2.07667900      0.21909500
C           0.20068900     -1.40513100     -0.32574300
H           1.41472800      0.82568800      0.69275200
H          -0.00733900      1.89661700      0.77273600
H           0.60827700      1.34678600     -0.80438400
H          -0.66111900     -0.41818200      1.37752300
H          -2.03896000      1.21717000     -0.24580500
H          -1.83034100     -0.09536800     -1.40903000
H          -3.99679400     -0.13257100     -0.17710800
H          -3.15955100     -0.24670200      1.36768700
H          -2.33353400     -2.56011700      0.76699800
H          -4.09772400     -2.45869300      0.64795600
H          -3.10168700     -2.42510200     -0.82678400
H           1.15993400     -1.61749200      0.17429500
H          -0.42160100     -2.30964900     -0.26681200
H           0.42050500     -1.22203300     -1.39350300
