23
b3lypvdz=-276.191257228812 
C           0.28163400      0.81852500     -0.01144300
C           1.78383300      0.84936400      0.28912800
C           2.56775100     -0.31127900     -0.33008800
C           4.04067500     -0.35357100      0.09105100
C          -0.47930900      2.02277000      0.55451700
C          -1.98865300      1.95710100      0.31889300
C           4.83164500     -1.48569100     -0.56484500
H          -0.15448900     -0.11261800      0.39856400
H           0.12518900      0.76348500     -1.10626000
H           2.20788900      1.80850600     -0.06589000
H           1.93239600      0.84569900      1.38640700
H           2.08514800     -1.26823600     -0.05018800
H           2.50319000     -0.25384800     -1.43394900
H           4.09555700     -0.45648800      1.19149900
H           4.51643600      0.61713200     -0.14590000
H          -0.27762800      2.10063900      1.63957900
H          -0.07231400      2.94968900      0.10944100
H          -2.42983300      1.05931600      0.78525900
H          -2.22695400      1.91605300     -0.75803800
H          -2.50747600      2.83233700      0.74248900
H           5.85966200     -1.54273200     -0.17202200
H           4.35222500     -2.46380900     -0.38361000
H           4.90022700     -1.34934100     -1.65839600
