23
b3lypvdz=-276.187133902808 
C           0.31238300      0.96467700      0.02292200
C           1.79498900      0.87757500      0.44206100
C          -0.54357600     -0.25882000      0.42283100
C           2.53752000     -0.39488800      0.01402300
C           4.05304100     -0.28237700      0.19115900
C          -0.63978100     -0.57197200      1.91959600
C          -0.29265900      2.28777300      0.51337800
H           0.29466300      0.98878900     -1.08435300
H           2.31495300      1.75176600      0.00716200
H           1.88182300      1.00116200      1.53904400
H          -1.56205000     -0.09939600      0.02364200
H          -0.15718200     -1.14781500     -0.10610700
H           2.16350500     -1.25938700      0.59029100
H           2.30805800     -0.61773600     -1.04498500
H           4.32107300     -0.07209500      1.24115000
H           4.57059900     -1.20868000     -0.10791200
H           4.46632100      0.53679000     -0.42143300
H          -1.04466400      0.27619200      2.49604400
H          -1.31197500     -1.42874100      2.09257200
H           0.33965900     -0.83172300      2.35356800
H          -1.33737800      2.40420900      0.17955900
H          -0.28116000      2.35692100      1.61477800
H           0.27933500      3.14737700      0.12630900
