14
b3lypvdz=-158.333867263845 
C          -0.57781900     -0.39664100      2.02328900
C           0.22022000     -1.45897100     -0.19196900
C          -0.46670800     -0.26970300      0.49923300
C           1.71573100     -1.60122800      0.12273400
H          -1.14036900      0.44983900      2.45052900
H          -1.10948500     -1.32229800      2.30694400
H           0.41088700     -0.41480400      2.51076600
H          -0.30611400     -2.39213200      0.08468900
H           0.09701400     -1.34970100     -1.28510600
H           0.07594400      0.65991700      0.24360500
H          -1.48241900     -0.15486000      0.07911800
H           2.26377700     -0.67586400     -0.12961600
H           2.16605700     -2.42100100     -0.46059300
H           1.89568300     -1.81875400      1.18887800
