20
b3lypvdz=-236.902768210936 
C           0.28331000      1.02243500      0.00559700
C           1.76321000      0.92365200      0.43630700
C           2.45707900     -0.31819600     -0.15708500
C          -0.43734000      2.30761600      0.42844500
C           2.56129300      2.18566200      0.08135900
C           1.84109900     -1.67551000      0.19215500
H          -0.26188700      0.15398300      0.41355700
H           0.22517100      0.92136900     -1.09676500
H           1.78424400      0.81849200      1.54165900
H           3.50956800     -0.30958900      0.18098800
H           2.49430400     -0.20536400     -1.25860300
H          -1.51125900      2.26103900      0.18267200
H          -0.35126400      2.48364800      1.51572300
H          -0.02615700      3.19506800     -0.07840300
H           3.62454500      2.07157900      0.35132700
H           2.51320700      2.39155100     -1.00372500
H           2.18286600      3.07621700      0.60526500
H           0.83476400     -1.80439500     -0.23985900
H           2.46616100     -2.49709200     -0.19431800
H           1.75228600     -1.81076600      1.28460400
