20
b3lypvdz=-236.902945662243 
C          -0.35960600     -0.15874900      0.52968600
C          -1.71649300      0.26830900     -0.07263800
C          -0.48060800     -0.39837800      2.04355600
C           0.21256000     -1.39020700     -0.20031300
C          -2.08712700      1.73502400      0.18991400
C           1.67973700     -1.71152800      0.12167700
H           0.35389200      0.67489800      0.36703800
H          -2.51240100     -0.39237100      0.31962000
H          -1.69638100      0.10401900     -1.16565100
H          -0.87590000      0.48962800      2.56431000
H          -1.16925200     -1.23749600      2.25015900
H           0.49105500     -0.64182200      2.50361500
H          -0.41856700     -2.27138900      0.02490200
H           0.12631000     -1.21952700     -1.28934000
H          -1.33160400      2.41563500     -0.23927300
H          -3.05697300      1.98743400     -0.27065700
H          -2.16324900      1.95694400      1.26794300
H           2.33077900     -0.84486500     -0.09061800
H           2.04072700     -2.55317100     -0.49206900
H           1.82560000     -1.99088800      1.17864100
