23
b3lypvdz=-276.18751797856 
C           1.76227300      0.84918700      0.56789400
C           2.47625500     -0.32531400     -0.10723700
C           3.99446500     -0.40105900      0.15371200
C           6.94861400     -0.21995800     -1.03227200
C           4.29686400     -0.75718800      1.61657400
C           4.65057700     -1.38304100     -0.83605800
C           6.18055800     -1.52124200     -0.77686400
H           0.70143200      0.89260000      0.27128900
H           2.22548200      1.80909800      0.27871200
H           1.79276000      0.78246600      1.66807500
H           2.00996900     -1.27692200      0.21518600
H           2.31209800     -0.26260000     -1.19838600
H           4.40815500      0.60742000     -0.04644600
H           6.79821100      0.51763200     -0.22642900
H           8.03291400     -0.40533200     -1.10955300
H           6.62314800      0.25451200     -1.97531300
H           3.92450900     -1.77082600      1.85410300
H           5.37668900     -0.73840800      1.83477200
H           3.81296700     -0.05618200      2.31383400
H           4.19998300     -2.38352900     -0.68706900
H           4.36769000     -1.07094800     -1.85931500
H           6.48067800     -2.26833000     -1.53305100
H           6.48880700     -1.94823600      0.19413900
