20
b3lypvdz=-236.902727053489 
C           0.36542000      1.05873800      0.03424500
C           1.85104400      0.93842800      0.41982700
C           2.51836800     -0.32824600     -0.17877000
C           3.99619600     -0.45841800      0.23005800
C           2.58611500      2.23144800      0.02487000
C           1.76878600     -1.62148300      0.18324300
H          -0.24124900      0.23411400      0.43862400
H          -0.06161400      1.99707300      0.42661000
H           0.23925100      1.06761600     -1.06400300
H           1.90706900      0.84730100      1.52428900
H           2.48255500     -0.22237900     -1.28343600
H           4.10647400     -0.47509900      1.33030200
H           4.42592000     -1.39584600     -0.16165300
H           4.61199800      0.36675800     -0.15885200
H           3.61702300      2.26200600      0.41079900
H           2.62947700      2.34290200     -1.07392300
H           2.06345800      3.11405400      0.43024500
H           0.75288800     -1.64565600     -0.23951000
H           2.30442800     -2.50201400     -0.20975400
H           1.68559200     -1.74329700      1.27898800
