18
b3lypvdz=-272.801325641663 
C           3.96202600     -0.52441000      0.23859800
C           6.85396000     -0.11148600     -1.07147900
C           4.25834200     -0.87224900      1.70100400
C           4.65724000     -1.42942800     -0.79251300
C           6.19257500     -1.45009600     -0.76678200
O           8.26207700     -0.32532700     -1.09971900
H           2.87232800     -0.59122000      0.06640900
H           4.22921500      0.53248600      0.05230600
H           6.57944300      0.63920900     -0.30262000
H           6.48151700      0.27360400     -2.04528600
H           4.01068300     -1.92667300      1.91812400
H           5.32088500     -0.72218900      1.95530700
H           3.66582900     -0.24644000      2.38712200
H           4.29962500     -2.46576800     -0.64504600
H           4.31622900     -1.13305900     -1.80221800
H           6.55429700     -2.17716100     -1.51380800
H           6.56437400     -1.80698700      0.20943800
H           8.68565500      0.52329400     -1.29053600
