21
b3lypvdz=-312.087217517778 
C           2.42551600     -0.46593300     -0.03977100
C           3.94419900     -0.42401700      0.17309500
C           6.92654100     -0.13188000     -1.03354000
C           4.28448200     -0.78873900      1.62490700
C           4.64619300     -1.33496000     -0.85547700
C           6.17652000     -1.43535300     -0.78807100
O           8.31937800     -0.43708400     -1.02736200
H           1.90092200      0.22665000      0.63776200
H           2.03158100     -1.47969500      0.15775300
H           2.15019500     -0.19541500     -1.07313200
H           4.27988700      0.61657700     -0.00390700
H           6.67562700      0.61285000     -0.25054200
H           6.60774900      0.30352500     -2.00560100
H           4.00335500     -1.83603900      1.84026900
H           5.35772200     -0.67625300      1.84687200
H           3.73152600     -0.14806600      2.33030400
H           4.23518600     -2.35651700     -0.74440400
H           4.34880500     -1.00094400     -1.86763000
H           6.51732800     -2.15787300     -1.54916800
H           6.50214200     -1.84288700      0.18424500
H           8.80204600      0.38855300     -1.17410200
