20
b3lypvdz=-236.903675508051 
C          -0.29457300      0.05698100      0.24571400
C           2.73585000     -0.57703100     -0.02303200
C          -1.78231100      0.27358500     -0.05325800
C           0.24915200     -1.26301100     -0.31742900
C          -2.27785200      1.66906100      0.33084100
C           1.65814700     -1.64956400      0.16108200
H           0.28535500      0.90382100     -0.16513700
H          -0.13572100      0.09033800      1.34180300
H           2.53832800      0.31505900      0.59344400
H           3.72669000     -0.96409900      0.26723300
H           2.80507700     -0.23632200     -1.07106400
H          -2.37471200     -0.49069500      0.48299800
H          -1.96844800      0.09147600     -1.12863600
H          -0.44295500     -2.08226300     -0.04524400
H           0.22873000     -1.21237900     -1.42323900
H          -1.74591700      2.45120100     -0.23662100
H          -3.35578000      1.79137500      0.13232700
H          -2.10815100      1.87298100      1.40290700
H           1.96827000     -2.56731100     -0.36967000
H           1.60822000     -1.92390200      1.23128100
