15
b3lypvdz=-196.398541102691 
C           4.16629900     -0.45461900      0.23150400
C           4.52740800     -1.47512200     -0.85772400
C           6.31748800      0.95224400      0.13486900
C           4.08341100      2.00392000     -0.17852000
C           4.81292400      0.90241500      0.04655300
H           3.07152000     -0.32952800      0.27062000
H           4.47325600     -0.86350700      1.21325200
H           5.60675600     -1.69867200     -0.87100700
H           3.99556800     -2.42549800     -0.69068900
H           4.25055100     -1.09998900     -1.85754500
H           6.79522400      0.36170700     -0.66578000
H           6.67582700      0.51338000      1.08429800
H           6.69475700      1.98282700      0.06294300
H           2.99211500      1.96205900     -0.24337300
H           4.55349600      2.98238400     -0.30940100
