23
b3lypvdz=-276.188096031763 
C           0.42123400      1.10025600     -0.05651900
C           1.86815800      0.87527000      0.41568400
C          -0.59312900      0.03345800      0.37736200
C           2.47292400     -0.47986900      0.02294300
C          -2.02766800      0.35084900     -0.06639200
C          -3.10581200     -0.63438200      0.41219800
C          -2.92168300     -2.08318500     -0.06148100
H           0.07823600      2.08530700      0.31337000
H           0.40789600      1.17340800     -1.16247800
H           2.49824600      1.68623900      0.00674400
H           1.91545100      0.98822100      1.51664100
H          -0.56456400     -0.08497400      1.47977900
H          -0.28997700     -0.94494500     -0.03692800
H           3.53109700     -0.54899500      0.32704700
H           1.94366100     -1.31898000      0.50459400
H           2.42688300     -0.64471000     -1.06918300
H          -2.29175600      1.36444000      0.29165700
H          -2.05756000      0.40435100     -1.17337900
H          -4.08673600     -0.26558200      0.06122600
H          -3.15336400     -0.61018500      1.51836500
H          -1.99789700     -2.53537700      0.33728900
H          -3.75972700     -2.72253800      0.26352200
H          -2.86811200     -2.14318000     -1.16416000
