20
b3lypvdz=-236.904226209944 
C           0.43104500      1.08517700      0.04158800
C           1.84480200      0.76021100      0.54244100
C          -0.60545800      0.00197800      0.37437000
C          -2.00356700      0.32069200     -0.17930600
C          -3.13781300     -0.58425900      0.33032700
C          -2.93957800     -2.08244100      0.06577100
H           0.09915400      2.04614500      0.47646600
H           0.45935200      1.23528400     -1.05390400
H           2.21554200     -0.18166600      0.10253900
H           2.55802500      1.55714400      0.27243100
H           1.86666000      0.64916900      1.64093100
H          -0.65991400     -0.12372300      1.47343500
H          -0.25602200     -0.96404100     -0.03305000
H          -2.25711400      1.36752000      0.07367000
H          -1.97154000      0.27219000     -1.28540300
H          -4.08100300     -0.25739800     -0.14383500
H          -3.26970700     -0.42114700      1.41675100
H          -2.07721500     -2.48640300      0.62124500
H          -3.82678300     -2.65828400      0.37890600
H          -2.77306700     -2.28214800     -1.00767200
