17
b3lypvdz=-197.618603175255 
C           0.40861500      0.88169900      0.03534900
C           1.88015700      0.98483500      0.47710000
C          -0.47364700      2.07534800      0.43073500
C           2.59787000      2.26490400      0.02874200
C          -1.96825200      1.80882500      0.21232900
H          -0.02167800     -0.04055000      0.46788800
H           0.36437100      0.75344400     -1.06405100
H           2.42749300      0.10781000      0.08663900
H           1.93214700      0.91105400      1.58029400
H          -0.30023200      2.32970600      1.49359500
H          -0.17612200      2.96364400     -0.15358800
H           3.66397800      2.23639500      0.31067100
H           2.54252700      2.39578600     -1.06682200
H           2.16058600      3.16168000      0.49721600
H          -2.31679400      0.96557500      0.83252000
H          -2.17875600      1.55684900     -0.84196300
H          -2.57736400      2.69009700      0.47534700
