21
b3lypvdz=-274.963281641872 
C          -0.64122100     -0.43060300      0.51649800
C           2.45566300     -0.19623400     -0.02322000
C           3.96418300     -0.34487200      0.18762300
C           0.21226300     -1.47893800     -0.20244400
C           1.69495700     -1.50937900      0.20108300
C           4.36621800      2.14233900     -0.20651300
C           4.79831000      0.90017100      0.03499200
H          -0.32439600      0.59732700      0.27137400
H          -1.70191200     -0.52205400      0.22829000
H          -0.58303000     -0.54419200      1.61419900
H           2.06512700      0.58256900      0.65461600
H           2.26645200      0.16946800     -1.05067600
H           4.15573100     -0.76456100      1.19669000
H           4.35980500     -1.11640700     -0.50232700
H          -0.21689500     -2.48006000     -0.01386400
H           0.13932900     -1.31784100     -1.29520300
H           2.19353100     -2.31189600     -0.37374600
H           1.78244600     -1.80295100      1.26519700
H           3.30692700      2.38347100     -0.33298100
H           5.07036600      2.97434700     -0.29229200
H           5.87944400      0.74049700      0.14840500
