21
b3lypvdz=-274.989611490298 
C           0.41112900      0.97127200     -0.04092100
C           1.80031200      0.93787200      0.59419600
C          -0.50572600     -0.21676300      0.30292700
C          -1.89817800      0.24534800     -0.16485600
C          -3.07900600     -0.55042600      0.38941700
C          -0.44591400      2.19747100      0.36000500
C          -1.92745000      1.75941200      0.19387800
H           0.52827000      0.98220600     -1.14149400
H           2.36769200      0.04660700      0.27569500
H           2.39469400      1.82322100      0.30903700
H           1.73829300      0.92070100      1.69695500
H          -0.50834700     -0.38075600      1.39879300
H          -0.18624200     -1.16089500     -0.16901800
H          -1.91532100      0.15488900     -1.26783000
H          -4.03734600     -0.13912500      0.02898300
H          -3.03916000     -1.60832000      0.07881000
H          -3.09911200     -0.52387700      1.49377100
H          -0.23986000      2.45764900      1.41337700
H          -0.19470500      3.08946200     -0.23570100
H          -2.45116700      2.34084500     -0.58191100
H          -2.48935700      1.91710700      1.13048800
