23
b3lypvdz=-276.187602689195 
C           0.30469100      0.90590400      0.00106400
C           1.78487500      0.90144100      0.43800200
C           2.55793200     -0.31564500     -0.11444000
C          -0.50026600      2.14634800      0.42080300
C           2.51352500      2.19800900      0.04846700
C          -2.01252700      1.95738300      0.24613000
C           1.93084900     -1.69174900      0.14899300
H          -0.18993900      0.01402300      0.42485500
H           0.24696600      0.79578100     -1.10061300
H           1.80308100      0.82972400      1.54480300
H           3.57209700     -0.29999500      0.32430000
H           2.69588100     -0.18629900     -1.20559800
H          -0.28500900      2.38767900      1.47882500
H          -0.17401200      3.01980800     -0.16978200
H           3.58160400      2.14584800      0.32130600
H           2.45199000      2.37397600     -1.04066400
H           2.09066000      3.07779700      0.55803400
H          -2.38708700      1.13571300      0.88020400
H          -2.26743000      1.71333000     -0.80013600
H          -2.56694000      2.86980600      0.52366000
H           0.99492400     -1.83414500     -0.41500500
H           2.62044200     -2.49594300     -0.15859000
H           1.70549600     -1.83449300      1.22078100
