21
b3lypvdz=-274.965254871924 
C           2.49525200     -0.31170800     -0.02905400
C           4.02770800     -0.41474800      0.07435200
C           1.74555900     -1.62141100      0.23536700
C           4.59851600     -1.44295900     -0.92142600
C           6.24969200      0.88385600      0.19857600
C           4.14661500      2.09004100     -0.29339400
C           4.75488400      0.92329800     -0.03173800
H           2.14568000      0.44565100      0.69241100
H           2.22406700      0.06926100     -1.03106200
H           4.25964400     -0.79857000      1.09088700
H           0.65738300     -1.44790100      0.26275500
H           1.93356000     -2.38034200     -0.54045600
H           2.03699800     -2.06036300      1.20586700
H           5.68710400     -1.55977500     -0.80954900
H           4.14828000     -2.43447900     -0.76453400
H           4.39536700     -1.13521800     -1.96270400
H           6.78348100      0.40620100     -0.64113300
H           6.50691100      0.29823900      1.09902900
H           6.65959000      1.89750000      0.31843400
H           3.07500000      2.17529400     -0.48084800
H           4.72420800      3.01773500     -0.34068100
