21
b3lypvdz=-274.963356497648 
C           0.30673100      1.07458500      0.12794500
C           1.82421400      0.87432400      0.22012700
C          -0.53075800     -0.15061200      0.52415000
C          -0.48425700     -0.49853600      2.01603700
C           2.61076200      2.12612500     -0.17428500
C           4.11231800      2.03181700     -0.09471800
C           4.82629700      0.99992400      0.36653400
H           0.01167400      1.93364000      0.76083900
H           0.04864700      1.36667200     -0.90685600
H           2.12384600      0.03514200     -0.43474000
H           2.10114500      0.57428400      1.24627300
H          -1.58062100      0.03455100      0.23451900
H          -0.20301800     -1.02312500     -0.07137600
H          -0.80269800      0.36044900      2.63276200
H          -1.15957900     -1.33695600      2.25184700
H           0.52598200     -0.78682500      2.35056900
H           2.33166800      2.42769300     -1.20342100
H           2.28551400      2.97883700      0.45395700
H           4.64865100      2.91920900     -0.45550900
H           4.35794800      0.08747600      0.74338500
H           5.91883100      1.03552400      0.38896100
