17
b3lypvdz=-197.620783775288 
C          -0.25752000     -0.04739100      0.27663600
C          -1.68887200      0.29841600     -0.14514800
C           0.22018100     -1.41673000     -0.21639500
C          -2.12799100      1.68870000      0.31928700
C           1.63610400     -1.76130700      0.25041200
H           0.43312000      0.73569400     -0.09230100
H          -0.18286200     -0.00949900      1.38193300
H          -2.38435500     -0.46253800      0.25603700
H          -1.77037000      0.22232100     -1.24663100
H          -0.48523400     -2.19737300      0.12627600
H           0.17140400     -1.43956100     -1.32206800
H          -1.46906000      2.47462500     -0.08758000
H          -3.15649100      1.92353800     -0.00033000
H          -2.09000000      1.77029900      1.42002600
H           2.36417200     -0.99566600     -0.06941800
H           1.97821900     -2.72756600     -0.15457800
H           1.68935700     -1.81966100      1.35174200
