23
b3lypvdz=-276.184917599756 
C           0.36941300      1.05048800      0.01151000
C           1.83428200      0.89402900      0.45287700
C           2.50764700     -0.35615500     -0.17846600
C           3.99687900     -0.54231500      0.20812100
C           4.28483300     -0.72954400      1.70151600
C           2.59327400      2.19201400      0.13822900
C           1.72848500     -1.65218200      0.10525400
H          -0.26392300      0.20955600      0.33078000
H          -0.06567200      1.96854600      0.43891400
H           0.29248900      1.12872100     -1.08818200
H           1.83688800      0.75727900      1.55145300
H           2.48954300     -0.19691400     -1.27519500
H           4.36739400     -1.42762200     -0.33889600
H           4.59263200      0.30459100     -0.17292300
H           3.70380400     -1.55818800      2.13686400
H           5.35068800     -0.95438000      1.86979600
H           4.04699400      0.17445000      2.28669200
H           3.62106100      2.19030600      0.53025000
H           2.64885000      2.36220500     -0.95181900
H           2.07636200      3.05940600      0.58016500
H           0.73875700     -1.65929900     -0.37367600
H           2.28153100     -2.52517100     -0.27879000
H           1.57488900     -1.80842200      1.18672800
