20
b3lypvdz=-236.903657848875 
C           0.44325800      1.05142200      0.11046800
C           1.92703900      0.96263200      0.48376700
C          -0.44734500     -0.17563600      0.44372600
C          -1.85323500      0.09642700     -0.12972100
C          -0.55974900     -0.36421700      1.96884000
C           0.11904200     -1.46535100     -0.18481900
H          -0.00183600      1.93202300      0.61028400
H           0.35971100      1.24945900     -0.97438100
H           2.44272700      0.15061800     -0.05349700
H           2.44654800      1.89915900      0.21985400
H           2.07758000      0.79646600      1.56378200
H          -2.53544600     -0.74935000      0.06056600
H          -2.29967800      0.99521700      0.32874600
H          -1.81719000      0.26108800     -1.22048100
H          -0.94414900      0.54843500      2.45587400
H          -1.25634300     -1.18434000      2.21236500
H           0.41101700     -0.61097800      2.42867000
H           1.09215400     -1.73924400      0.25418800
H          -0.56717200     -2.31180800     -0.01225500
H           0.25766800     -1.36242300     -1.27487700
