18
b3lypvdz=-235.68167730422 
C           4.08098100     -0.53259900      0.43338500
C           6.83495300      0.18745900     -1.37702900
C           4.04941200     -0.78817100      1.94774100
C           6.33392800      0.66772100     -0.00332700
C           4.16711600      1.87572400     -0.21802100
C           4.81959800      0.73812300      0.06235300
H           3.04648800     -0.47770500      0.05750600
H           4.55574700     -1.39512900     -0.06786500
H           6.46761900     -0.82383200     -1.61795800
H           7.93652500      0.16520000     -1.41407700
H           6.48000600      0.86208400     -2.17191800
H           3.49224600     -1.71081900      2.17785500
H           5.06142000     -0.89268700      2.37137100
H           3.55333000      0.04306700      2.47441400
H           6.71902900     -0.00715700      0.77964700
H           6.75596200      1.66457700      0.20476400
H           3.07468100      1.92635200     -0.22193500
H           4.70805700      2.79489000     -0.45950700
