23
b3lypvdz=-276.185718957731 
C           1.90056800      0.93236500      0.53245800
C           2.48928200     -0.32126100     -0.14212000
C           3.99882100     -0.49018500      0.19872600
C           4.26728500     -0.85091800      1.67036200
C           0.16889500     -1.47911800     -0.22925800
C           1.65576000     -1.58853100      0.14092500
C           4.70469900     -1.48546100     -0.73796700
H           0.91640900      1.19204300      0.11218600
H           2.56102600      1.80269800      0.37723100
H           1.77164400      0.79697000      1.62097300
H           2.44107600     -0.14268500     -1.23554500
H           4.46341800      0.49827000      0.01817200
H           3.93440900     -1.87636500      1.90552400
H           5.34707800     -0.79792600      1.88976000
H           3.75756700     -0.16406400      2.36456200
H          -0.36303700     -0.75199300      0.40480200
H          -0.33611900     -2.45148100     -0.10120800
H           0.03614900     -1.16886500     -1.28135200
H           2.09239000     -2.43347900     -0.41936000
H           1.73257300     -1.85430700      1.21099800
H           5.79183700     -1.49886600     -0.54802300
H           4.33456200     -2.51576800     -0.59655300
H           4.55520900     -1.21337200     -1.79739100
