21
b3lypvdz=-274.967573690251 
C           2.40057600     -0.27416000      0.02091000
C           3.92411500     -0.34500400      0.14034300
C           6.86797500     -0.08128000     -1.04358300
C           1.74384100     -1.64416100      0.21010300
C           6.21968600      0.79401300      0.04029400
C           4.14809600      2.12251500     -0.31675200
C           4.71264900      0.93129300     -0.06997100
H           1.99823300      0.43806800      0.76317700
H           2.12974800      0.13274300     -0.97013200
H           4.19225000     -0.74932700      1.13843400
H           4.29909700     -1.10936100     -0.56642600
H           6.54309300     -1.13290500     -0.98001600
H           7.96611700     -0.07002300     -0.94296400
H           6.61692600      0.28916700     -2.05209400
H           0.65079400     -1.59613500      0.07584100
H           2.13544400     -2.37954200     -0.51305000
H           1.93964000     -2.04596500      1.21988400
H           6.47115300      0.36854600      1.03138400
H           6.66634000      1.80145700      0.00571700
H           3.06746200      2.25906500     -0.39731000
H           4.76636600      3.01449600     -0.45348900
