23
b3lypvdz=-276.186189980789 
C          -0.41526000     -0.15847900      0.53350200
C          -1.75957300      0.29855800     -0.10160000
C          -2.95803700     -0.59814900      0.24680200
C          -0.48598400     -0.33704600      2.05879100
C           0.13485600     -1.41910300     -0.16387600
C          -2.08150700      1.76815800      0.20854900
C           1.60707100     -1.73062700      0.12862800
H           0.30807400      0.65508600      0.32333600
H          -1.60684200      0.22378700     -1.19596300
H          -3.83742000     -0.31088200     -0.35266900
H          -2.75756700     -1.66336400      0.04550200
H          -3.24204100     -0.50307100      1.30919600
H          -0.86100400      0.56706600      2.56525800
H          -1.15243000     -1.17102100      2.33770100
H           0.50586000     -0.55927200      2.48356400
H          -0.48691000     -2.29331300      0.10607900
H           0.01501700     -1.28470400     -1.25490800
H          -1.26483400      2.43857000     -0.10843200
H          -2.99554200      2.08992400     -0.31827200
H          -2.24992800      1.93446900      1.28664100
H           2.25315200     -0.87037700     -0.12207600
H           1.95660300     -2.58619600     -0.47160300
H           1.78554600     -1.97901400      1.18775000
