23
b3lypvdz=-276.190316141213 
C           0.30998400      0.93985700      0.03718200
C           1.79887700      0.87612200      0.40433700
C           2.52423600     -0.34270500     -0.18394000
C           4.01208100     -0.45753100      0.20215700
C           4.18687900     -0.86525000      1.67330000
C          -0.36664600      2.23072100      0.51600400
C           4.74372800     -1.44238900     -0.72253000
H          -0.21084900      0.06589900      0.47114600
H           0.19899600      0.85175600     -1.06032100
H           2.30007600      1.79570300      0.04464000
H           1.89211000      0.88210500      1.50633600
H           2.00298200     -1.27014000      0.12578200
H           2.44224200     -0.29654000     -1.28629400
H           4.47760800      0.53835400      0.06379600
H           3.72042300     -1.84916800      1.86309500
H           5.25442500     -0.94348100      1.93990300
H           3.72808100     -0.13904900      2.36343900
H          -1.43310400      2.25601100      0.23556200
H          -0.30412800      2.33202500      1.61419900
H           0.11666300      3.11782500      0.07128000
H           5.80976000     -1.53113300     -0.45161200
H           4.29506700     -2.45032700     -0.66129500
H           4.69240500     -1.11426400     -1.77526600
