18
b3lypvdz=-235.677568954524 
C           4.13688800     -0.40547100      0.29186800
C           4.35438800     -0.90985300      1.72964100
C           4.68305700     -1.38812400     -0.77670000
C           6.19645900     -1.62850400     -0.77943800
C           3.98800300      2.07681600     -0.17552000
C           4.69650800      0.98830700      0.13709600
H           3.04640500     -0.34180200      0.12033200
H           3.97783200     -1.94013300      1.84864200
H           5.42198000     -0.90555600      2.00663000
H           3.82412200     -0.26829300      2.45009900
H           4.16520500     -2.35465600     -0.63552300
H           4.37473600     -1.01569900     -1.76952000
H           6.76059800     -0.71186100     -1.01730000
H           6.46652000     -2.37916100     -1.53982800
H           6.56222500     -2.00364100      0.19045900
H           2.90966500      2.02217800     -0.36234500
H           4.45626600      3.06084600     -0.26222500
H           5.77354300      1.09650700      0.32573200
