20
b3lypvdz=-236.903240534614 
C          -1.89237900      0.20857400     -0.08500500
C          -3.20557600     -0.50585400      0.29703800
C          -4.42923300      0.09818500     -0.41877500
C          -5.78641000     -0.48085100      0.00701600
C          -3.06770500     -2.01498000      0.03647400
C          -1.84598300      1.71416400      0.21193800
H          -1.06455200     -0.28365100      0.45693200
H          -1.69301500      0.04148500     -1.16150400
H          -3.35466400     -0.36134400      1.38742000
H          -4.45200600      1.18642700     -0.23183600
H          -4.30356300     -0.02790800     -1.51271300
H          -6.61097600      0.06610500     -0.47909400
H          -5.89309400     -1.54332600     -0.26978100
H          -5.92803800     -0.39800500      1.09940200
H          -2.17088700     -2.42018100      0.53517000
H          -3.93264800     -2.58388100      0.41271100
H          -2.97053200     -2.22166000     -1.04497500
H          -0.83710000      2.11770900      0.02264000
H          -2.54479300      2.28639100     -0.41865100
H          -2.09734400      1.92290000      1.26719200
