23
b3lypvdz=-276.187179874067 
C          -0.54572000     -0.26643400      0.50149200
C           2.56389700     -0.33956200     -0.08000700
C           4.05554700     -0.55899200      0.21248200
C          -0.63910700     -0.47405900      2.01480200
C           4.37038700     -0.79539700      1.69407800
C           0.20514900     -1.37830400     -0.24906200
C           1.68119100     -1.57512000      0.13908700
H          -0.06997000      0.70864600      0.29190100
H          -1.56453000     -0.19095300      0.08168600
H           2.20326200      0.49522500      0.54893700
H           2.44815300     -0.00166200     -1.12734600
H           4.43013100     -1.40753600     -0.39071800
H           4.61705100      0.32656900     -0.13580000
H          -1.23945200      0.31644500      2.49324700
H          -1.11827900     -1.44001400      2.25628000
H           0.35251600     -0.47109700      2.49716300
H           3.95424600     -1.74803900      2.06186500
H           5.45725200     -0.81541600      1.87797100
H           3.94242900      0.00775000      2.31941200
H          -0.32922400     -2.33427700     -0.08923000
H           0.14377300     -1.17299700     -1.33422300
H           2.08844400     -2.41038800     -0.46066100
H           1.74875300     -1.90478800      1.19104500
