18
b3lypvdz=-272.802557928204 
C           2.43529700     -0.44561300      0.00289500
C           3.96052200     -0.37659600      0.08496500
C           6.92804700     -0.11900600     -1.06225600
C           4.65509900     -1.32826000     -0.89625800
C           6.18034200     -1.41315300     -0.76163300
O           8.32167800     -0.40703100     -0.99996200
H           1.95508900      0.25636000      0.70255500
H           2.06774300     -1.45799600      0.24545400
H           2.07460200     -0.19952600     -1.01130100
H           4.28477700     -0.61912700      1.11462200
H           4.28872200      0.66199100     -0.10264500
H           6.64938900      0.66641100     -0.33091400
H           6.63422500      0.25465000     -2.06719800
H           4.24124900     -2.34321100     -0.75157100
H           4.38656800     -1.03760500     -1.93061800
H           6.56764300     -2.18262100     -1.45082100
H           6.45290000     -1.74280900      0.25716300
H           8.80060700      0.41404300     -1.18077700
