17
b3lypvdz=-197.619176571334 
C          -1.88516600      0.19814200      0.05730900
C          -3.23899700     -0.48925100      0.28754000
C          -4.39497800      0.03338800     -0.56905200
C          -0.42178300      2.26626400      0.33065600
C          -1.83219600      1.68375000      0.43916200
H          -1.11869000     -0.33916800      0.64555000
H          -1.58654400      0.08167500     -1.00292300
H          -3.11611800     -1.57095800      0.09724700
H          -3.51162400     -0.39735200      1.35647200
H          -5.32109500     -0.52660800     -0.35811600
H          -4.60448500      1.09885400     -0.37538100
H          -4.18071300     -0.07485900     -1.64746200
H          -0.03530600      2.18808500     -0.70071900
H           0.28356900      1.72577700      0.98447300
H          -0.39510800      3.32990900      0.61998500
H          -2.51969700      2.26554300     -0.20010900
H          -2.20446900      1.80920800      1.47396700
