12
b3lypvdz=-194.239296802363 
O           8.18653400     -0.22826900     -1.03979600
C           6.22399400     -1.52479700     -0.79164600
C           6.27378700      0.90171200     -0.03484300
C           6.75937300     -0.12413100     -1.06004200
H           8.54468800      0.65193100     -1.22287500
H           5.12273300     -1.54529200     -0.84635700
H           6.62380800     -2.23925600     -1.52837500
H           6.53486900     -1.86855400      0.21009000
H           5.17359100      0.98537000     -0.03050100
H           6.61229500      0.61839800      0.97676400
H           6.68700900      1.90242700     -0.25768400
H           6.42511800      0.19436100     -2.07143700
