23
b3lypvdz=-276.184958639463 
C          -0.55395400     -0.32680500      0.51924500
C          -1.84394200      0.26041700     -0.10673200
C          -3.13253500     -0.50640000      0.29339200
C          -4.39326500      0.06516900     -0.37919900
C          -0.53328700     -0.43347000      2.04925200
C          -3.03005300     -2.01106000     -0.00893700
C          -1.94416600      1.77063300      0.17585800
H           0.29208700      0.30619300      0.19487000
H          -0.35426200     -1.32275600      0.08842100
H          -1.73434100      0.14124400     -1.20381600
H          -3.26571200     -0.38793900      1.38673500
H          -5.27561500     -0.54239700     -0.11714800
H          -4.60296700      1.09896900     -0.06427300
H          -4.30080200      0.05856500     -1.48056900
H          -0.72155000      0.53803100      2.53637900
H          -1.28694400     -1.14341900      2.42682000
H           0.44989100     -0.79103300      2.39803800
H          -2.21068000     -2.49928700      0.53949100
H          -3.96186600     -2.52999900      0.27143000
H          -2.86269200     -2.18756500     -1.08689700
H          -0.99598500      2.27602200     -0.07437300
H          -2.73195900      2.25378800     -0.42095200
H          -2.16170200      1.97559900      1.23846400
