17
b3lypvdz=-197.620721749493 
C          -4.35525500      0.08362900     -0.33002200
C          -5.76601100     -0.43752800     -0.04445600
C          -6.86366000      0.24644800     -0.86536300
C          -9.38243000      0.38328300     -1.37377400
C          -8.26920200     -0.28378800     -0.56382000
H          -3.60174000     -0.44143400      0.27838700
H          -4.27200800      1.16145900     -0.10380000
H          -4.08348300     -0.05617300     -1.39101800
H          -5.79987500     -1.52716800     -0.23734500
H          -5.99023600     -0.30945900      1.03213700
H          -6.83687700      1.33759300     -0.67234300
H          -6.64810000      0.11773400     -1.94471000
H          -9.23751900      0.23922400     -2.45941800
H         -10.36843700     -0.03515700     -1.11274600
H          -9.42257300      1.47073700     -1.18496800
H          -8.47645300     -0.15077100      0.51545300
H          -8.28684000     -1.37552900     -0.74729400
