23
b3lypvdz=-276.188606551124 
C           0.44150200      1.01848800      0.04700900
C           1.93709300      0.94200500      0.38446000
C          -0.45415800     -0.18888300      0.43245900
C          -1.86295300      0.07253900     -0.13875300
C          -0.55723200     -0.31429600      1.96510600
C           2.64868100      2.27420000      0.12396400
C           0.09151800     -1.50912700     -0.14809500
H           0.01956600      1.91643400      0.53792800
H           0.33836600      1.19937000     -1.04032500
H           2.41949200      0.14748800     -0.21181400
H           2.07784000      0.65846400      1.44313800
H          -2.55867400     -0.74437000      0.11668900
H          -2.28472400      1.00876800      0.26515600
H          -1.83933300      0.16280700     -1.23852300
H          -0.92105700      0.62425200      2.41743000
H          -1.26587200     -1.11115800      2.24681400
H           0.41270100     -0.55997500      2.42752800
H           3.72421500      2.21716100      0.36103600
H           2.55246000      2.58035700     -0.93291600
H           2.21493900      3.08160000      0.73850600
H           1.06641400     -1.77604200      0.29130800
H          -0.60228300     -2.33978900      0.06641400
H           0.21799900     -1.45289200     -1.24292100
