23
b3lypvdz=-276.188427051106 
C          -0.50799800     -0.09533100      0.41967000
C           2.61045700     -0.26913400     -0.18941900
C          -1.99686500      0.00821600      0.07825900
C           4.08110200     -0.52442800      0.18139600
C           0.20367700     -1.22369100     -0.33531700
C           1.67155100     -1.45800600      0.05758100
C           4.78313600     -1.60612900     -0.64286700
H          -0.01938400      0.86977900      0.19732000
H          -0.38960700     -0.25702600      1.50829900
H           2.25666200      0.60073400      0.39016200
H           2.55084000      0.03022400     -1.25428600
H          -2.52714100     -0.93293000      0.30685600
H          -2.49025200      0.81126500      0.64853200
H          -2.14793300      0.21944200     -0.99469900
H           4.14262700     -0.79035000      1.25427400
H           4.63744000      0.42380500      0.07044800
H          -0.35424400     -2.16413700     -0.16575000
H           0.14085400     -1.02595900     -1.42319200
H           2.03945800     -2.33394600     -0.50396300
H           1.71895200     -1.74078400      1.12719600
H           5.84237300     -1.69783500     -0.35074900
H           4.32163200     -2.59750900     -0.50433700
H           4.75446100     -1.37007000     -1.72161200
