23
b3lypvdz=-276.188580933536 
C           0.43441100      1.11392500     -0.07749900
C           1.88939400      0.91068100      0.37167900
C          -0.55975700      0.01670300      0.32484000
C           2.50214100     -0.45805200      0.04297000
C          -2.01143400      0.40424600      0.02293500
C           4.00884000     -0.50275900      0.29643000
C          -3.02271900     -0.72140600      0.23604900
H           0.07948200      2.08103500      0.32374300
H           0.40352400      1.22071700     -1.17898900
H           2.50729800      1.70064300     -0.09410900
H           1.97016500      1.07867400      1.46320000
H          -0.45912500     -0.22246700      1.40162000
H          -0.31229500     -0.91887900     -0.21042700
H           2.00174000     -1.23765900      0.64453500
H           2.29621900     -0.71910000     -1.01234100
H          -2.28490900      1.27651700      0.64527900
H          -2.07945100      0.75639500     -1.02384000
H           4.24998900     -0.24441100      1.34265600
H           4.43204200     -1.49995900      0.09182600
H           4.54385400      0.21745800     -0.34531100
H          -4.04725700     -0.39023100     -0.00222900
H          -2.79756400     -1.58806200     -0.40900800
H          -3.02318700     -1.08330900      1.27919100
