21
b3lypvdz=-274.964609516001 
C           0.35047600      1.10916900     -0.06435400
C           1.85800700      0.88998800      0.09057400
C          -0.48984400     -0.13359300      0.24829900
C          -1.99612300      0.12261900      0.17882000
C           2.68468200      2.13835700     -0.22232700
C           4.17133100      2.03095000      0.00165100
C           4.82543600      0.99421900      0.53529000
H           0.03519100      1.93531200      0.60091000
H           0.12635600      1.45451800     -1.09241200
H           2.18788700      0.06153200     -0.56297900
H           2.06487700      0.55956600      1.12513100
H          -0.22446300     -0.50623600      1.25552300
H          -0.21482000     -0.94381400     -0.45163300
H          -2.57652900     -0.78236600      0.42204000
H          -2.30056300      0.91003000      0.88930200
H          -2.30219600      0.45777800     -0.82771800
H           2.50444400      2.44718200     -1.27105300
H           2.30983200      2.99048700      0.37877100
H           4.74930400      2.91264900     -0.30418900
H           4.31326000      0.08705600      0.86419500
H           5.90985300      1.01979600      0.67095700
