14
b3lypvdz=-158.335344956981 
C           0.32067200      0.94806500      0.00987100
C           1.79909000      0.93076600      0.41973400
C           2.55808200     -0.29083800     -0.11131800
C          -0.42035900      2.20469100      0.48235300
H          -0.18059900      0.05016200      0.41744000
H           0.24689900      0.86919400     -1.09160800
H           2.28877400      1.85354500      0.05525100
H           1.87052200      0.95858000      1.52370000
H           3.60914400     -0.28722900      0.22265400
H           2.09847000     -1.22980600      0.24282500
H           2.55586900     -0.31186600     -1.21538600
H          -1.47639900      2.19284000      0.16434900
H          -0.40125500      2.28863700      1.58340600
H           0.04269200      3.11716000      0.06922900
