17
b3lypvdz=-197.619649553748 
C           0.35378100      0.96724200      0.02428400
C           1.84024500      0.95447100      0.43676300
C           2.53110000     -0.30055600     -0.11920900
C          -0.44024500      2.19970400      0.47641300
C           2.58560700      2.22945400      0.01282500
H          -0.12668100      0.06078800      0.43569400
H           0.28539000      0.87551400     -1.07764100
H           1.88182100      0.89745000      1.54294100
H           3.57640900     -0.36965900      0.22629400
H           2.01065500     -1.21845300      0.20406500
H           2.54076800     -0.29152700     -1.22411900
H          -1.51175100      2.08373500      0.24103700
H          -0.35107000      2.35839600      1.56596100
H          -0.09270900      3.11636000     -0.02628000
H           3.65559600      2.16603000      0.27520100
H           2.51390400      2.38873300     -1.07857100
H           2.18148000      3.12461900      0.51174300
