23
b3lypvdz=-276.188806512634 
C           0.32851400      1.20231000     -0.01344100
C           1.77248100      0.86187800      0.37059100
C          -0.66346900      0.07536000      0.29585000
C          -2.07598800      0.31759600     -0.25192200
C          -3.16254300     -0.61216500      0.31171700
C          -2.86216700     -2.10992100      0.19592400
C           2.75514700      2.02086700      0.19503700
H           0.00968700      2.11920500      0.51931700
H           0.28767900      1.45381900     -1.09149600
H           2.10846500     -0.00309400     -0.23169300
H           1.79669600      0.51931100      1.42256700
H          -0.70837100     -0.06967800      1.39320900
H          -0.26847100     -0.87280700     -0.11340000
H          -2.37003100      1.36318000     -0.04042800
H          -2.05232200      0.22709900     -1.35571500
H          -4.11274500     -0.38884600     -0.20608800
H          -3.33296600     -0.36022900      1.37554300
H          -1.97746600     -2.39716500      0.78868900
H          -3.70647600     -2.71572700      0.56446200
H          -2.66957000     -2.40778900     -0.85008300
H           3.77893300      1.72796600      0.48121400
H           2.78719900      2.37147400     -0.85160700
H           2.46908500      2.88405700      0.82065300
