20
b3lypvdz=-236.906188559313 
C          -3.20769500     -0.54843200      0.38354400
C          -4.33665800      0.11503400     -0.40839900
C          -5.73351000     -0.42279200     -0.07890700
C          -6.85772800      0.24419900     -0.87796400
C          -9.37953900      0.37455500     -1.35101200
C          -8.25645500     -0.28975300     -0.55137100
H          -2.22720000     -0.12784700      0.10599300
H          -3.16796800     -1.63597900      0.19498500
H          -3.33413600     -0.40413000      1.47147500
H          -4.31906900      1.20663200     -0.22475300
H          -4.14792800     -0.01806000     -1.49102700
H          -5.75541000     -1.51543700     -0.26237900
H          -5.92575000     -0.28734600      1.00392200
H          -6.83542700      1.33644900     -0.69163600
H          -6.66347700      0.11183600     -1.96080200
H          -9.24933300      0.22303900     -2.43755700
H         -10.36346100     -0.03879500     -1.07483300
H          -9.41374800      1.46354900     -1.16966900
H          -8.44991800     -0.15125500      0.52972100
H          -8.27639100     -1.38216900     -0.73003000
