17
b3lypvdz=-197.617893782881 
C           0.35375800      0.99804400      0.05079200
C           1.84534100      0.92659500      0.42753600
C          -0.50732700     -0.20009800      0.48524500
C           2.57676600     -0.30960100     -0.11216900
C          -0.54188000     -0.44679900      1.99837800
H          -0.07726400      1.92016300      0.48426400
H           0.27010700      1.10956300     -1.04715500
H           2.34267300      1.83501200      0.04167700
H           1.95786700      0.96509800      1.52664500
H          -1.53855900     -0.02940200      0.12618500
H          -0.15900500     -1.11508100     -0.02737400
H           3.65515600     -0.26020900      0.11595200
H           2.19120300     -1.24037600      0.33613600
H           2.46776900     -0.39380300     -1.20841900
H          -0.87334000      0.45519400      2.54203700
H          -1.24218500     -1.26110600      2.24810700
H           0.44741900     -0.73259500      2.39316200
