23
b3lypvdz=-276.18702133327 
C           0.38398600      1.03739900      0.10699900
C           1.85924100      0.84606300      0.50165500
C          -0.56532400     -0.12733800      0.43586300
C           2.53450700     -0.39885300     -0.08970300
C           4.03765200     -0.51003600      0.21450300
C          -0.60857500     -0.52738100      1.91569300
C           4.36702400     -0.73825600      1.69503700
H           0.00742900      1.95083700      0.60451600
H           0.32562500      1.23895900     -0.97944500
H           2.42173500      1.74144000      0.17375800
H           1.94518200      0.82333400      1.60295800
H          -1.58080700      0.15832400      0.10573900
H          -0.29363700     -1.01005100     -0.17198400
H           2.03342400     -1.30938000      0.29024800
H           2.38715700     -0.40313300     -1.18652300
H           4.46140500     -1.33737000     -0.38191700
H           4.54966200      0.40608200     -0.13912500
H          -0.87750400      0.33108500      2.55628200
H          -1.35546500     -1.31891000      2.09321000
H           0.36284500     -0.91128100      2.27024600
H           3.85945000     -1.64079400      2.07896300
H           5.45065800     -0.87180600      1.85031500
H           4.04962700      0.10866700      2.32571100
