23
b3lypvdz=-276.188884765739 
C          -0.48503500     -0.21113400      0.49605100
C          -1.81417500      0.34940700     -0.05858500
C          -3.09048300     -0.42778600      0.29315600
C          -4.33033000      0.10589800     -0.43350400
C          -5.62846900     -0.61475900     -0.06239800
C          -0.48817200     -0.35030600      2.02577200
C          -0.08541600     -1.53206200     -0.17906800
H           0.29152100      0.53286300      0.23393200
H          -1.93307600      1.39291600      0.28920300
H          -1.72580700      0.40453800     -1.16033200
H          -2.96770500     -1.49838600      0.04228800
H          -3.26532500     -0.38321600      1.38457900
H          -4.43657500      1.18661900     -0.21883600
H          -4.16787800      0.02483600     -1.52544100
H          -6.48847200     -0.20041800     -0.61281400
H          -5.57460600     -1.69261000     -0.29711400
H          -5.84410900     -0.52047100      1.01640100
H          -0.76299700      0.59644400      2.52178900
H          -1.20382300     -1.11892800      2.36298100
H           0.50624000     -0.64988900      2.39796100
H           0.88805400     -1.88900100      0.19698900
H          -0.82125800     -2.33061700      0.01675800
H          -0.00130400     -1.41143600     -1.27256900
