20
b3lypvdz=-236.904871456293 
C           0.39418700      0.95532200      0.07096400
C           1.89064200      0.94545200      0.40811800
C           2.61359800     -0.18474300     -0.34843600
C           4.09536100     -0.37853800     -0.00087100
C           2.49300600      2.33492700      0.16036100
C           4.67349200     -1.67728000     -0.57051500
H          -0.07127100     -0.02958200      0.24429400
H          -0.15056800      1.69500500      0.67920400
H           0.23292700      1.22008800     -0.99012000
H           1.99535100      0.72261000      1.48895300
H           2.07854000     -1.12865900     -0.12825900
H           2.50956000     -0.03107100     -1.44112400
H           4.21177300     -0.37870500      1.09979600
H           4.68638100      0.48072200     -0.36488600
H           3.55153500      2.39455700      0.46114200
H           2.42773100      2.60629500     -0.90901400
H           1.94582900      3.10376500      0.72999400
H           5.72381600     -1.82317200     -0.26934800
H           4.10245400     -2.55195300     -0.21345400
H           4.63705500     -1.69194100     -1.67399800
