20
b3lypvdz=-236.903474390528 
C           2.50733100     -0.39822100     -0.12758000
C           4.01382400     -0.50799900      0.19384600
C           4.27235900     -0.79658700      1.68048600
C           0.17081500     -1.41118300     -0.14915100
C           1.66653800     -1.66979400      0.05462700
C           4.74493800     -1.51519100     -0.70397300
H           2.07825700      0.39882400      0.50808900
H           2.39301500     -0.04376100     -1.16980600
H           4.44274400      0.48929800     -0.02235100
H           3.97106900     -1.82218900      1.95639900
H           5.34224500     -0.69039700      1.92606900
H           3.71076500     -0.10271100      2.32732600
H          -0.20637200     -0.66612600      0.57220100
H          -0.42414500     -2.33004500     -0.01934600
H          -0.03496000     -1.01555900     -1.15973700
H           2.00444200     -2.44778400     -0.65253200
H           1.82395200     -2.08608100      1.06623500
H           5.83108900     -1.50265200     -0.50958100
H           4.39351100     -2.54706300     -0.52903300
H           4.59418200     -1.28477900     -1.77298800
