23
b3lypvdz=-276.188502331753 
C           0.51069600      1.11780800     -0.21000000
C           1.91194500      0.89660400      0.38771400
C          -0.54498800      0.07633300      0.18593100
C           2.48510800     -0.51146900      0.21888500
C          -1.97549800      0.51147300     -0.15041400
C          -3.01882100     -0.58932000      0.07329600
C          -4.45462200     -0.11915400     -0.15413800
H           0.16477900      2.12041300      0.10064300
H           0.57453600      1.15246600     -1.31369500
H           2.60247400      1.62948600     -0.06532400
H           1.88577300      1.14105200      1.46587000
H          -0.48178600     -0.13316900      1.27036900
H          -0.32460200     -0.88344600     -0.31471200
H           3.50189200     -0.57393400      0.63907600
H           1.87315900     -1.26321200      0.74173400
H           2.54187000     -0.81103700     -0.84172400
H          -2.23589700      1.39312700      0.46384800
H          -2.02620300      0.85875500     -1.19979500
H          -2.79201000     -1.43975300     -0.59484000
H          -2.92362400     -0.98517300      1.10120700
H          -5.18145700     -0.92390900      0.04520000
H          -4.70879800      0.72474200      0.50872200
H          -4.61092600      0.22351500     -1.19145100
