9
b3lypvdz=-117.824418010248 
C           4.06066500      2.07962400     -0.04617800
C           4.76995200      0.94949500      0.02743700
C           6.26887600      0.86522100     -0.03846900
H           2.96782600      2.07057000      0.01161300
H           4.54798900      3.05392000     -0.16314500
H           4.23609600     -0.00254700      0.15132100
H           6.59338400      0.21523000     -0.87093100
H           6.68170400      0.42393300      0.88740900
H           6.72570700      1.85825400     -0.17915700
