20
b3lypvdz=-236.903798260184 
C           0.39386700      0.97747000      0.02492400
C           1.86925900      0.93001100      0.44765300
C           2.56094400     -0.30296400     -0.17007400
C           4.03158700     -0.54945500      0.20677900
C           4.27175300     -0.82559800      1.69467300
C           2.56398300      2.25355600      0.09830200
H          -0.13380300      0.04458100      0.28634400
H          -0.13704100      1.81016500      0.51421300
H           0.30093100      1.11899600     -1.06760800
H           1.89631100      0.81693900      1.54868500
H           1.97598600     -1.19787800      0.11986500
H           2.48166400     -0.23597400     -1.27227800
H           4.39380700     -1.41048500     -0.38285900
H           4.65552100      0.30529800     -0.11425300
H           3.63931000     -1.65609500      2.05356700
H           5.32193600     -1.10108200      1.88736200
H           4.04452200      0.05211400      2.32272400
H           3.59641800      2.30025900      0.48079500
H           2.60095000      2.40451100     -0.99604000
H           2.01679500      3.10723200      0.53222500
