20
b3lypvdz=-236.902829879187 
C          -0.48909300      0.01722700      0.30542400
C           2.59690600     -0.48024900     -0.02900000
C          -1.94672300      0.28450400     -0.10830400
C          -2.96298000     -0.73915300      0.40579500
C           0.13017700     -1.24028900     -0.32015000
C           1.54877000     -1.57997000      0.16728900
H           0.11863600      0.89581400      0.02674200
H          -0.43154600     -0.05552200      1.40976300
H           2.37917000      0.41350200      0.57770800
H           3.59794900     -0.83875300      0.26315000
H           2.65387200     -0.15462300     -1.08262700
H          -2.23908200      1.28511800      0.25672100
H          -2.00486700      0.33509300     -1.21233900
H          -3.98453800     -0.47438300      0.08588000
H          -2.75863700     -1.75530900      0.03002100
H          -2.96090700     -0.78580100      1.50912600
H          -0.51563400     -2.11120000     -0.10973900
H           0.13671200     -1.12533000     -1.42167000
H           1.88638500     -2.49098400     -0.35820000
H           1.50552900     -1.84909300      1.23931000
