15
b3lypvdz=-196.399039624465 
C           2.50428200     -0.36093100     -0.05235900
C           4.02494700     -0.37731800      0.07946500
C           6.24446700      0.86876500      0.04835100
C           4.10930100      2.13129900     -0.14049200
C           4.73986200      0.95522100     -0.01659200
H           2.02882200      0.25290100      0.72966100
H           2.09795800     -1.38097000      0.03634200
H           2.18875200      0.04293800     -1.02905200
H           4.30639400     -0.84145600      1.04596400
H           4.45670200     -1.05708800     -0.68072900
H           6.64484800      0.24919900     -0.77448600
H           6.57776700      0.37780900      0.98147400
H           6.71445200      1.86162600     -0.00734900
H           3.02144500      2.21214300     -0.19451800
H           4.67440000      3.06606200     -0.19608000
