23
b3lypvdz=-276.187262267689 
C          -0.53885600     -0.25476000      0.49739900
C           2.52968200     -0.35393300     -0.10657100
C           4.03922100     -0.50682000      0.19503000
C           4.31359800     -0.84255900      1.66935500
C           0.17278200     -1.41187000     -0.21509900
C           1.65820800     -1.59136400      0.15396200
C           4.73469200     -1.50770000     -0.74212400
H          -0.14626800      0.72528900      0.18060000
H          -1.61874100     -0.26156300      0.27106600
H          -0.42489300     -0.32687100      1.59451900
H           2.14968200      0.48899500      0.49747500
H           2.41243200     -0.04903800     -1.16434500
H           4.49153100      0.48450600     -0.00011100
H           4.00312300     -1.87171300      1.91935600
H           5.39013300     -0.75805100      1.89593300
H           3.77484700     -0.15579100      2.34399100
H          -0.35723100     -2.35353400      0.01857300
H           0.08256300     -1.27354300     -1.30988600
H           2.05320600     -2.44713800     -0.42167600
H           1.72328800     -1.87715500      1.22027900
H           5.82509100     -1.51722200     -0.57059600
H           4.36809900     -2.53733600     -0.58450800
H           4.56621300     -1.24662800     -1.80152200
