23
b3lypvdz=-276.188893711701 
C          -0.33504000      0.08484300      0.28354200
C           2.71916300     -0.34962700     -0.01997300
C          -1.81907900      0.23741100     -0.06963900
C           4.17314400     -0.76092800      0.21571600
C           0.28387400     -1.21575200     -0.24404700
C          -2.37114000      1.62437400      0.26400800
C           1.72292600     -1.49347000      0.21794200
H           0.21930200      0.94975800     -0.12397900
H          -0.21196600      0.14078100      1.38323300
H           2.46678200      0.50092700      0.63766400
H           2.60878400      0.03065900     -1.05327900
H          -2.40427000     -0.53531800      0.46195800
H          -1.95974600      0.02738900     -1.14697300
H           4.32157800     -1.14809200      1.23960900
H           4.47968700     -1.56164600     -0.47845400
H           4.86537100      0.08533800      0.07400100
H          -0.35266600     -2.06846200      0.05853200
H           0.25103800     -1.19755100     -1.35034900
H          -1.83407000      2.40985700     -0.29417800
H          -3.44143800      1.71298700      0.01382400
H          -2.25642400      1.85242300      1.33839100
H           2.08869600     -2.39645400     -0.30492500
H           1.72239300     -1.75054600      1.29437600
