14
b3lypvdz=-158.333878961461 
C          -4.42994100      0.02537800     -0.43496400
C          -1.84967300      1.73682100      0.24231900
C          -1.86735300      0.24050000     -0.09765300
C          -3.16986400     -0.48752800      0.27459100
H          -5.30297000     -0.59494500     -0.17181700
H          -4.66763100      1.06404600     -0.14980700
H          -4.31538100     -0.00797800     -1.53338800
H          -0.86182700      2.17756800      0.02571500
H          -2.59280800      2.30229200     -0.34255800
H          -2.06442500      1.90615200      1.31271600
H          -1.03014500     -0.25373600      0.42766100
H          -1.67270500      0.10708600     -1.17887300
H          -3.04646700     -1.56230200      0.04580000
H          -3.31901100     -0.42055300      1.36985800
