21
b3lypvdz=-274.960839225425 
C           2.48507100     -0.33416200     -0.04380200
C           4.01384200     -0.38908500      0.13541300
C           1.75967800     -1.66514100      0.17317300
C           4.67804800     -1.36839300     -0.86476800
C           6.18514500     -1.57392100     -0.69014800
C           4.11679400      2.15047000     -0.19766300
C           4.67454300      0.97158200      0.10098700
H           2.08099800      0.40894900      0.66475000
H           2.25051200      0.04959000     -1.05412900
H           4.21573700     -0.79909400      1.14882600
H           0.66717800     -1.52590600      0.12581000
H           2.02236700     -2.41842600     -0.58619000
H           1.99679400     -2.09542700      1.16228000
H           4.18169800     -2.34712500     -0.76181500
H           4.46675300     -1.01850600     -1.89266300
H           6.76613600     -0.66569500     -0.91604500
H           6.55002400     -2.36541100     -1.36412600
H           6.43216300     -1.88016200      0.34144100
H           3.06393600      2.25811900     -0.47059900
H           4.71267000      3.06727700     -0.18373300
H           5.73791100      0.96706700      0.36840100
