21
b3lypvdz=-312.086444372441 
C           2.39987100     -0.35255100     -0.07430300
C           3.93129300     -0.36635500      0.06486500
C           6.93771500     -0.12903900     -1.06021100
C           1.71816500     -1.68625700      0.25025600
C           4.64415200     -1.31228800     -0.90994400
C           6.16637600     -1.40520900     -0.74237100
O           8.32540300     -0.44171000     -0.97965500
H           1.99221700      0.42854300      0.59115500
H           2.13093600     -0.04249600     -1.10167800
H           4.19932500     -0.64832100      1.10197500
H           4.30517200      0.66330700     -0.07914600
H           6.66805600      0.67643500     -0.34769700
H           6.66031000      0.22868300     -2.07541600
H           0.62083500     -1.60232100      0.17949000
H           2.02768700     -2.48884000     -0.43794800
H           1.96160600     -2.01738600      1.27550200
H           4.23266700     -2.32862900     -0.78766400
H           4.40212600     -1.00901200     -1.94728200
H           6.55871000     -2.19301000     -1.40754500
H           6.41629900     -1.71654800      0.28793300
H           8.82177600      0.36220300     -1.18851600
