23
b3lypvdz=-276.186902119877 
C           0.27167900      0.97248300      0.02731300
C           1.74589600      0.81569600      0.42513800
C           2.48131200     -0.39706600     -0.18257700
C           3.96480000     -0.42579200      0.25364700
C           4.22297800     -0.74996000      1.73288500
C          -0.32293700      2.30064600      0.51477000
C           1.77912200     -1.73985800      0.07884700
H          -0.32144700      0.13713500      0.43976500
H           0.17654000      0.91073500     -1.07357600
H           2.29018500      1.72875600      0.11664800
H           1.80927600      0.78034000      1.52990100
H           2.48544500     -0.24589100     -1.28051500
H           4.50003100     -1.16566600     -0.36924800
H           4.41933400      0.55407600      0.01663300
H           3.87469100     -1.76215000      1.99762400
H           5.30228000     -0.70425300      1.95523200
H           3.72049200     -0.03652000      2.40623400
H          -1.38132400      2.40008800      0.22070800
H          -0.26857400      2.38304900      1.61489100
H           0.22434900      3.15935700      0.08892500
H           0.81587500     -1.80026100     -0.45180300
H           2.39952600     -2.57948500     -0.27981000
H           1.58037000     -1.90215900      1.15236900
