23
b3lypvdz=-276.188130755185 
C          -0.38103300     -0.05202700      0.32038300
C          -1.75276800      0.46646700     -0.16734700
C          -2.90816000     -0.51487900      0.12097300
C          -4.26468100     -0.10579300     -0.46654600
C           0.03702200     -1.45155600     -0.15116100
C          -1.99950400      1.86124300      0.43109200
C           1.48680100     -1.78077300      0.21828500
H           0.38483100      0.67117700     -0.01802100
H          -0.34904100     -0.01664300      1.42718400
H          -1.69231300      0.57941500     -1.26832800
H          -2.64527100     -1.50366400     -0.29075900
H          -3.00666500     -0.65421900      1.21462700
H          -5.02053800     -0.89022700     -0.29495900
H          -4.65383100      0.82208900     -0.01787700
H          -4.19756000      0.05512700     -1.55704600
H          -0.62894200     -2.21451200      0.28839300
H          -0.09229500     -1.53151100     -1.24692000
H          -1.17606300      2.55189200      0.18399400
H          -2.92939800      2.31684600      0.05725400
H          -2.06633000      1.80937600      1.53303700
H           2.19039900     -1.06144400     -0.23337700
H           1.77435300     -2.78634700     -0.13013800
H           1.63698500     -1.74523700      1.31145600
