17
b3lypvdz=-197.619169845774 
C           2.50392900     -0.30360300     -0.10014800
C           4.02242400     -0.44746900      0.07899600
C           1.70479100     -1.57954600      0.18281000
C           4.68557300     -1.47618200     -0.84202700
C           6.20800400     -1.51924600     -0.70122500
H           2.14440800      0.49965300      0.56706700
H           2.29230900      0.04098600     -1.13018800
H           4.24138800     -0.71466200      1.13205800
H           4.49635700      0.53771100     -0.09059300
H           0.62023000     -1.39792100      0.09819800
H           1.95700200     -2.38952500     -0.52044700
H           1.90258900     -1.95538500      1.20321000
H           4.27612800     -2.48040800     -0.63107400
H           4.41545000     -1.24782200     -1.89104600
H           6.66299000     -0.54443300     -0.95055500
H           6.65836100     -2.27318500     -1.36600100
H           6.50756800     -1.76766200      0.33206300
