23
b3lypvdz=-276.187469373221 
C          -0.52482600      0.05777100      0.29089800
C           2.56433100     -0.26980200     -0.01396800
C          -1.96109300      0.22274600     -0.23641000
C           4.03660300     -0.61558900      0.22506800
C          -2.95907100     -0.84516800      0.22251000
C           0.15969000     -1.25786900     -0.10893100
C           1.61375100     -1.41290800      0.37252000
H           0.07100900      0.90588200     -0.08900200
H          -0.52156500      0.15465600      1.39430500
H           2.30630300      0.63726300      0.56012200
H           2.41653100     -0.00696900     -1.07840800
H          -2.33298500      1.21346100      0.08165500
H          -1.94059800      0.24800200     -1.34238300
H           4.21723100     -0.89624300      1.27770200
H           4.35286200     -1.46842600     -0.39942600
H           4.69865800      0.23350400     -0.01315500
H          -3.97034400     -0.62188500     -0.15637000
H          -2.69017600     -1.84981800     -0.14361900
H          -3.01821400     -0.89707300      1.32376200
H          -0.42318400     -2.11058800      0.28049800
H           0.13473800     -1.35259100     -1.21231500
H           2.01439600     -2.35805000     -0.03794700
H           1.62845400     -1.53390800      1.47309400
