17
b3lypvdz=-197.61995348287 
C          -5.76433800     -0.44082500      0.00815900
C          -6.89454900      0.25950000     -0.75604500
C          -8.74151700     -0.15130900      0.96103800
C          -9.32618200      0.37380600     -1.44113700
C          -8.30852700     -0.29669800     -0.50467700
H          -4.78353900     -0.04161200     -0.29932100
H          -5.76051500     -1.52705600     -0.19207300
H          -5.84895300     -0.29633800      1.09851600
H          -6.88681000      1.33939000     -0.50869500
H          -6.68214700      0.18755100     -1.83909800
H          -8.09583200     -0.72747700      1.64180400
H          -8.70902100      0.90684000      1.27773000
H          -9.77326800     -0.51488000      1.10557800
H          -9.04628200      0.23667900     -2.50027200
H         -10.33568500     -0.04908300     -1.30388100
H          -9.38846000      1.46028300     -1.24794100
H          -8.29177500     -1.37747100     -0.74918400
