23
b3lypvdz=-276.189746900092 
C           0.40130800      1.03601400      0.04814800
C           1.88640500      0.93170900      0.45401100
C          -0.52714200     -0.13020700      0.44159600
C           2.56963200     -0.32941000     -0.09777900
C          -1.95336900      0.13563200     -0.07311200
C          -0.54399400     -0.37876100      1.95771300
C           2.63219500      2.20040500      0.01019000
H          -0.01209600      1.96616200      0.48392700
H           0.35186900      1.16895000     -1.05076500
H           1.94489300      0.88854600      1.55820900
H          -0.16195000     -1.04859200     -0.05400700
H           3.64221500     -0.34030000      0.16230200
H           2.12722700     -1.25099900      0.31422000
H           2.48964600     -0.37919800     -1.19928400
H          -2.62265400     -0.71419100      0.14358700
H          -2.38372500      1.03199200      0.40695300
H          -1.96554700      0.30184100     -1.16434200
H          -0.85733200      0.53059400      2.50141900
H          -1.25290100     -1.18231500      2.21802000
H           0.44454100     -0.67712800      2.34299900
H           3.68361400      2.18590000      0.34395600
H           2.62806100      2.29869200     -1.09055600
H           2.16130200      3.10576300      0.42929600
