20
b3lypvdz=-236.905229425418 
C          -1.86460000      0.16898100     -0.08499500
C          -3.17832100     -0.53218300      0.29385600
C          -4.37788200      0.09789900     -0.44297400
C          -5.75442900     -0.43056300     -0.01433900
C          -6.92622300      0.26436000     -0.71981700
C          -3.06213800     -2.04480300      0.04971900
H          -1.01407400     -0.25302800      0.47593000
H          -1.90565600      1.25015600      0.13299900
H          -1.64867300      0.04854300     -1.16211200
H          -3.33774100     -0.37275600      1.37938200
H          -4.35544400      1.19227100     -0.27543000
H          -4.25315400     -0.05302800     -1.53443600
H          -5.81756500     -1.51612200     -0.21220800
H          -5.86223200     -0.30199800      1.07989300
H          -7.89154100     -0.14161700     -0.37417300
H          -6.92996700      1.35060300     -0.51959800
H          -6.87735800      0.12295600     -1.81424400
H          -2.17650500     -2.45812600      0.56087300
H          -3.93922800     -2.59620400      0.42412500
H          -2.95886800     -2.26514100     -1.02854800
