17
b3lypvdz=-197.619276591598 
C          -3.18994900     -0.56439800      0.29235800
C          -4.37702000      0.08547100     -0.43852800
C          -5.75841700     -0.43247600     -0.01735400
C          -6.91542700      0.28525000     -0.72328300
C          -3.05206400     -2.07611700      0.07076200
H          -2.26045700     -0.06766000     -0.04010700
H          -3.27474900     -0.35962800      1.37670600
H          -4.34054500      1.17786900     -0.26354200
H          -4.25389500     -0.05937700     -1.53028000
H          -5.83181300     -1.51553300     -0.22680600
H          -5.86944200     -0.31393500      1.07785500
H          -7.88945100     -0.11275000     -0.39350800
H          -6.90623500      1.36852900     -0.50779100
H          -6.85595500      0.15913700     -1.81908100
H          -2.14005900     -2.46406600      0.55409300
H          -3.90397600     -2.63484500      0.49159100
H          -2.99044700     -2.31717100     -1.00508500
