20
b3lypvdz=-236.904682911691 
C           0.37988500      0.88903200      0.00529800
C           1.86238400      0.94212700      0.42709200
C           2.60636500     -0.29388000     -0.10229400
C          -0.47824500      2.08668400      0.43927700
C           2.56314000      2.23840300     -0.00844000
C          -1.98011500      1.83711200      0.25257000
H          -0.06178700     -0.03404600      0.42542500
H           0.31931100      0.78129100     -1.09640100
H           1.89514000      0.90255900      1.53408900
H           3.64797900     -0.32114500      0.25967200
H           2.11457400     -1.22589800      0.22543200
H           2.63264500     -0.29841900     -1.20694400
H          -0.27829700      2.31994700      1.50214400
H          -0.18526000      2.98177900     -0.13628600
H           3.63031900      2.22084400      0.27197400
H           2.50369400      2.37572900     -1.10352800
H           2.11640600      3.12566300      0.46810500
H          -2.31996200      0.98298200      0.86286400
H          -2.21929500      1.60970200     -0.80110600
H          -2.57528100      2.71663300      0.55055500
