23
b3lypvdz=-276.190054464832 
C           0.37737800      0.93752000      0.11823400
C           1.88018000      0.92452900      0.43200400
C           2.59039300     -0.17475200     -0.38169900
C           4.10305700     -0.30302200     -0.15147100
C           2.47627800      2.32222100      0.21431200
C           4.69904900     -1.59250500     -0.73132100
C           6.22237300     -1.65898500     -0.60095100
H          -0.08086600     -0.05316900      0.27869700
H          -0.16044100      1.66132000      0.75172000
H           0.19992000      1.22426100     -0.93439200
H           2.00108200      0.66974200      1.50378800
H           2.11238800     -1.14257700     -0.13844000
H           2.40041800     -0.00678300     -1.46023400
H           4.31885700     -0.26332100      0.93368200
H           4.62701400      0.56158300     -0.59783700
H           3.53205400      2.37834100      0.52552700
H           2.41836900      2.61458400     -0.84994500
H           1.92269500      3.07710700      0.79667200
H           4.24238200     -2.46148400     -0.22221900
H           4.41684800     -1.68345500     -1.79707100
H           6.70651500     -0.83021800     -1.14465200
H           6.62550000     -2.59997400     -1.01005200
H           6.53675500     -1.58866100      0.45484800
