14
b3lypvdz=-158.333826889838 
C           4.65531100     -1.46418600     -0.75532300
C           6.82733600     -0.11228600     -1.11580100
C           4.02459400     -0.48666600      0.24129700
C           6.19225100     -1.46455600     -0.76542100
H           4.30478200     -2.48674700     -0.52263000
H           4.28541500     -1.23342200     -1.77309500
H           6.61549700      0.65177200     -0.35014900
H           7.92388100     -0.20008200     -1.19732900
H           6.44865900      0.26581600     -2.08200300
H           2.92797800     -0.60483400      0.26636700
H           4.40445500     -0.66082800      1.26406200
H           4.23623600      0.56252500     -0.02499200
H           6.53872500     -2.22336800     -1.48999600
H           6.56097900     -1.79683800      0.22381400
