23
b3lypvdz=-276.186783029374 
C          -0.37685400     -0.05488600      0.46216900
C           2.70525200     -0.56628800     -0.01591400
C          -1.80120900      0.24654000     -0.05086400
C          -0.37307400     -0.25856300      1.98495500
C           0.22382300     -1.26085100     -0.28590700
C          -2.28056000      1.67570500      0.22243200
C           1.65452000     -1.67619900      0.09770700
H           0.25070000      0.82783000      0.22979300
H           2.53366100      0.24749500      0.70827400
H           3.71667900     -0.96508100      0.17048600
H           2.70661000     -0.10903900     -1.02141900
H          -2.50326300     -0.47771200      0.40410400
H          -1.84230300      0.05680300     -1.13915200
H          -0.79594100      0.60970500      2.51535300
H          -0.98242200     -1.13918000      2.25830900
H           0.64081100     -0.42286300      2.38269700
H          -0.44367000     -2.13294300     -0.14366600
H           0.19993400     -1.03259000     -1.36849400
H          -1.64180200      2.41188500     -0.29498200
H          -3.31223800      1.82876700     -0.13579200
H          -2.26227500      1.92191800      1.29751000
H           1.94934900     -2.51512600     -0.55761500
H           1.66887400     -2.08522600      1.12381600
