15
b3lypvdz=-196.395188065193 
C           4.08759900     -0.43416200      0.26171700
C           4.27383300     -0.94094600      1.70378800
C           4.64406800     -1.44359000     -0.75704900
C           4.09218500      2.07067000     -0.12594600
C           4.73258000      0.91957700      0.09495700
H           3.00383300     -0.31783900      0.07337300
H           3.81970700     -1.93805700      1.83313600
H           5.34596200     -1.02347100      1.95597700
H           3.80896800     -0.25558700      2.42934300
H           5.73240100     -1.58192700     -0.62347800
H           4.16554200     -2.42986700     -0.63759600
H           4.47238600     -1.10278000     -1.79148100
H           3.00127900      2.10855400     -0.22425900
H           4.63133100      3.01683800     -0.22117500
H           5.82922700      0.92948600      0.18659300
