14
b3lypvdz=-158.333786284726 
C           4.05480000     -0.48679100      0.22683100
C           4.25926200     -0.87741700      1.69629100
C           4.67185600     -1.46481400     -0.78573000
C           6.20408800     -1.51444000     -0.77501300
H           2.97012600     -0.41438700      0.02758800
H           4.46799400      0.52474500      0.05413200
H           3.87201100     -1.89295000      1.89367200
H           5.32421200     -0.86104000      1.98276900
H           3.72735200     -0.18408800      2.36795500
H           4.27104800     -2.47932000     -0.59902700
H           4.33323300     -1.18133300     -1.79907500
H           6.63533700     -0.51593500     -0.96503600
H           6.58226500     -2.19450100     -1.55567800
H           6.59901700     -1.87433000      0.18982100
