20
b3lypvdz=-236.904254617214 
C           0.35173300      1.02873700      0.18649300
C           1.83879100      0.83704100      0.52344400
C          -0.52576200     -0.20865200      0.39445800
C           2.54170100     -0.29500400     -0.23263400
C           4.05667300     -0.33184700      0.00261800
C           4.73721300     -1.55409900     -0.61824400
H          -0.04057400      1.85261900      0.80907500
H           0.25737400      1.37081000     -0.86105800
H           2.36788100      1.78692500      0.31877700
H           1.94681600      0.65930400      1.61126300
H          -1.59038700      0.03344000      0.23846500
H          -0.42085600     -0.61090800      1.41834500
H          -0.26888900     -1.02173500     -0.30361900
H           2.11083600     -1.26710600      0.07009900
H           2.34105200     -0.19838900     -1.31768300
H           4.25453200     -0.31285100      1.09088200
H           4.51142300      0.59254600     -0.39946700
H           5.81824600     -1.57132200     -0.40100700
H           4.30516400     -2.48956600     -0.22269700
H           4.61643500     -1.57444300     -1.71560800
