23
b3lypvdz=-276.182919440378 
C          -0.44019600     -0.23669300      0.54344100
C          -1.78546600      0.21672400     -0.11016200
C          -3.06218500     -0.52133200      0.35294900
C          -0.53966900     -0.50917800      2.05195500
C          -3.14435300     -2.02281600      0.06787700
C           0.22286800     -1.41875500     -0.18261800
C          -1.99434700      1.72835900      0.07744600
H           0.25040100      0.61817400      0.41431600
H          -1.67764000      0.03405600     -1.19742600
H          -3.91667200     -0.02828800     -0.14462000
H          -3.21234900     -0.34245000      1.43350600
H          -0.94796600      0.35272100      2.60468900
H          -1.18328500     -1.37796900      2.26952200
H           0.45519200     -0.73194000      2.47250200
H          -2.39462400     -2.60085100      0.62831000
H          -4.13391800     -2.41752300      0.35265900
H          -2.99390700     -2.24148900     -1.00322500
H           1.20899100     -1.64124300      0.25854800
H          -0.38031900     -2.33734300     -0.12201400
H           0.38110900     -1.18878800     -1.24994500
H          -1.15249400      2.31058000     -0.33095400
H          -2.91061700      2.07160600     -0.43094900
H          -2.09475500      1.99213900      1.14479300
