19
b3lypvdz=-310.866376971068 
C           4.04346300     -0.53429300      0.44855800
C           6.84708100      0.21108600     -1.39277700
C           4.02229100     -0.77397000      1.96790600
C           6.33027600      0.59223600      0.00785900
O           8.25461900      0.03140800     -1.42618000
C           4.20138300      1.85239400     -0.26542700
C           4.81945100      0.70618400      0.05488300
H           3.00650200     -0.44873000      0.08350100
H           4.48132300     -1.41826000     -0.05076100
H           6.41333400     -0.75092700     -1.71125200
H           6.51129400      0.97386000     -2.12381100
H           3.43069400     -1.67093900      2.21492100
H           5.03621600     -0.91960100      2.37606900
H           3.56872700      0.08241300      2.49339400
H           6.69336400     -0.16510600      0.72266700
H           6.79286600      1.55341400      0.29567000
H           8.66040800      0.87757200     -1.18662700
H           3.11021000      1.93135800     -0.28200900
H           4.76659800      2.75350100     -0.52138400
