23
b3lypvdz=-276.186077442494 
C          -0.46080400     -0.21610700      0.49585400
C          -1.77953500      0.38208200     -0.07783900
C          -3.03187200     -0.43384400      0.30736200
C          -4.28637200     -0.11870400     -0.50992700
C          -0.47834100     -0.41239500      2.02038100
C          -0.06418600     -1.52121600     -0.20918600
C          -1.93288000      1.86835100      0.28312300
H           0.32914400      0.52428600      0.26331600
H          -1.67704500      0.32225700     -1.17969400
H          -2.81229600     -1.51046700      0.19599900
H          -3.25146400     -0.27559500      1.37959800
H          -5.12425900     -0.76631200     -0.20497700
H          -4.61522700      0.92562200     -0.38009100
H          -4.11748700     -0.28372100     -1.58882000
H          -0.73862400      0.51197800      2.56072600
H          -1.20496400     -1.18600400      2.31956800
H           0.50912700     -0.74322000      2.38349600
H           0.89707100     -1.89796900      0.17826500
H          -0.80773000     -2.32061300     -0.05036800
H           0.04415300     -1.37368800     -1.29692800
H          -1.03087900      2.44138200      0.00843000
H          -2.78117000      2.33120700     -0.24440100
H          -2.10186000      2.01329000      1.36441200
