20
b3lypvdz=-236.9046153847 
C          -1.90191400      0.20640100      0.08502800
C          -3.27134100     -0.43045900      0.36387000
C          -4.43373600      0.13156500     -0.46254100
C          -5.77238600     -0.54483900     -0.15988000
C          -0.37391800      2.24005200      0.26764900
C          -1.79129100      1.69390000      0.44836800
H          -1.13359700     -0.34844300      0.65387900
H          -1.64128000      0.07009100     -0.98276800
H          -3.20029800     -1.51900400      0.17926900
H          -3.50805600     -0.31935400      1.44055400
H          -4.52984400      1.21723900     -0.27937200
H          -4.19939100      0.01896500     -1.53877700
H          -6.58789500     -0.11608900     -0.76411200
H          -5.73569200     -1.62788700     -0.37275100
H          -6.04693900     -0.42660100      0.90306900
H          -0.03943700      2.13875500     -0.77978400
H           0.34959900      1.69242800      0.89480100
H          -0.30891000      3.30694000      0.53897800
H          -2.49110200      2.28778500     -0.16584700
H          -2.11467100      1.83925500      1.49686800
