18
b3lypvdz=-235.710701740505 
C           0.36023400      1.04741300      0.07394300
C           1.84360400      0.93121400      0.46173000
C          -0.42073800     -0.22749700      0.43034500
C           2.49326100     -0.32256700     -0.14709300
C           0.21919100     -1.47974500     -0.19111600
C           1.70611400     -1.60236600      0.18021200
H          -0.09436000      1.92188000      0.57144000
H           0.28199400      1.22813900     -1.01530200
H           2.39284300      1.83265800      0.13743900
H           1.93020100      0.89043900      1.56496300
H          -1.46978400     -0.13440000      0.09816100
H          -0.44527500     -0.34258400      1.53123600
H           3.53271400     -0.42192300      0.21194100
H           2.54930100     -0.20159200     -1.24633700
H          -0.32559900     -2.38337200      0.13455500
H           0.11839700     -1.43228900     -1.29283500
H           2.15663100     -2.46270100     -0.34471000
H           1.79327000     -1.81520500      1.26312800
