18
b3lypvdz=-235.682830177703 
C           4.08731300     -0.48105200      0.26860300
C           4.32117100     -0.91385100      1.72884100
C           2.55796400      2.30652600     -0.04055800
C           4.67065700     -1.51423500     -0.71250800
C           4.04105300      2.05551800     -0.10458200
C           4.68417600      0.88508200      0.02105600
H           2.99733400     -0.44240000      0.09649600
H           3.89517500     -1.91491500      1.91917200
H           5.39978900     -0.95528600      1.96209100
H           3.85321700     -0.20794600      2.43317300
H           1.97737400      1.40598200      0.21095100
H           2.18391200      2.69562400     -1.00573300
H           2.32938500      3.07353300      0.72025200
H           5.76394600     -1.61366400     -0.58454800
H           4.22253700     -2.50957700     -0.54975900
H           4.47916000     -1.22347500     -1.75952100
H           4.65417100      2.94953100     -0.27866400
H           5.78156500      0.90210500     -0.04756300
