20
b3lypvdz=-236.90301814859 
C           1.92626700      0.93669700      0.48149100
C           2.53869300     -0.25757200     -0.28062400
C           4.03889200     -0.42894900      0.04354600
C           2.48300500      2.31748900      0.12821900
C           1.73071300     -1.52875100      0.01090000
C           4.71693400     -1.64826200     -0.58563600
H           0.83630600      0.93883100      0.29685300
H           2.04742900      0.75895900      1.56769000
H           2.44877700     -0.04508000     -1.36531900
H           4.15751800     -0.47305200      1.14387000
H           4.57614200      0.47902900     -0.27994600
H           3.55697200      2.41127400      0.36011800
H           2.35288000      2.53740000     -0.94565400
H           1.95995500      3.10501900      0.69337600
H           0.66005700     -1.37381200     -0.20230500
H           2.06415500     -2.38349200     -0.59609000
H           1.82114000     -1.81748600      1.07379700
H           5.79557400     -1.65803500     -0.35843600
H           4.30022600     -2.59389500     -0.20483500
H           4.60776500     -1.65551300     -1.68461400
