15
b3lypvdz=-196.39411532444 
C           2.42175800     -0.29431100     -0.02806500
C           3.93125000     -0.36229500      0.21598200
C           1.74381600     -1.65873900      0.12423500
C           4.21219100      2.14541900     -0.15681200
C           4.70227200      0.92518300      0.08664800
H           1.96421000      0.42628100      0.67340300
H           2.23209000      0.10262400     -1.04194300
H           4.12147700     -0.77730900      1.22711000
H           4.37946700     -1.10744600     -0.47076000
H           0.66426100     -1.60126000     -0.09169400
H           2.18125400     -2.40254800     -0.56330300
H           1.85968200     -2.05209600      1.14958200
H           3.14500300      2.33358100     -0.30427800
H           4.87634800      3.01125100     -0.22464700
H           5.78742200      0.82096500      0.22184200
