14
b3lypvdz=-158.335091536292 
C           0.30401500      1.01837300      0.06752200
C          -0.45095700      2.28589000      0.48607200
C          -0.44124400     -0.27878300      0.40815800
C           0.21644700     -1.53526400     -0.17548600
H           1.29620000      1.00380000      0.55501900
H           0.49387000      1.05375000     -1.02162200
H          -1.42392000      2.35505400     -0.02972800
H          -0.64690500      2.29753200      1.57265600
H           0.12414500      3.19402300      0.23869600
H          -1.48151700     -0.20990800      0.03758600
H          -0.50755100     -0.37796500      1.50797100
H           1.25778000     -1.64112200      0.17595400
H          -0.33051400     -2.44586700      0.12042400
H           0.23625200     -1.49951300     -1.27892200
