16
b3lypvdz=-271.584110606102 
C           6.78594600     -0.09072200     -1.10125400
C           2.58927800      2.21553500      0.01341100
C           6.27642200      0.84390900      0.00188600
O           8.20040500     -0.23055900     -1.09021100
C           4.08374200      2.08585700     -0.06583000
C           4.77789000      0.94984400      0.06942400
H           6.38826800     -1.10848000     -0.94570600
H           6.41467400      0.25638600     -2.08797600
H           2.10672400      1.24934700      0.23197800
H           2.16928600      2.60434300     -0.93268700
H           2.29190800      2.93260000      0.79928100
H           6.67953200      0.46713300      0.96150000
H           6.70743500      1.85115700     -0.15343700
H           8.57629300      0.64212500     -1.27729400
H           4.63838300      3.01706900     -0.25009600
H           4.23051300      0.01235800      0.24681200
