17
b3lypvdz=-197.619087390238 
C          -0.55531800     -0.27688900      0.49112900
C          -1.85943700      0.31173000     -0.06963400
C          -3.12167900     -0.49238800      0.26211300
C          -4.38069300      0.01959400     -0.44233500
C          -0.51135900     -0.41690500      2.01601200
H           0.28325900      0.36345800      0.16270100
H          -0.37660300     -1.26575400      0.02843500
H          -1.98307100      1.35031300      0.29489700
H          -1.76409600      0.38360100     -1.16973100
H          -2.95655500     -1.55272900     -0.01080300
H          -3.28923000     -0.48037800      1.35477500
H          -5.26811300     -0.56466900     -0.14944400
H          -4.57846400      1.07628400     -0.18950800
H          -4.28667000     -0.04555900     -1.54090300
H          -0.69569300      0.55024200      2.51706600
H          -1.26797700     -1.12577600      2.38984400
H           0.47190000     -0.78487500      2.35318600
