17
b3lypvdz=-197.619917131912 
C           2.52578600     -0.33981100     -0.09412800
C           4.02914500     -0.46147700      0.18493200
C           4.26554600     -0.86110100      1.64786100
C           4.68546200     -1.43516200     -0.81280900
C           6.21104700     -1.53577100     -0.73741400
H           2.04654400      0.39168300      0.57636500
H           2.01886500     -1.30981800      0.06061800
H           2.33048700     -0.02161100     -1.13196100
H           4.48802500      0.53481600      0.02523900
H           3.85790600     -1.86939100      1.84748100
H           5.33462500     -0.87195900      1.91308800
H           3.76183300     -0.16183600      2.33475000
H           4.24366000     -2.44053800     -0.66692700
H           4.39994700     -1.12422200     -1.83446100
H           6.68797200     -0.55243800     -0.89463200
H           6.60044200     -2.21726200     -1.51076400
H           6.55710900     -1.92120200      0.23566200
