23
b3lypvdz=-276.188310211124 
C          -0.53609200     -0.26957400      0.54016900
C           2.52127200     -0.30180800     -0.17697300
C           4.03564300     -0.45512400      0.03442000
C           0.19347600     -1.43685400     -0.13252100
C           1.69403900     -1.54247000      0.18754400
C           4.72462200     -1.47162300     -0.88212100
C           6.23841500     -1.54393000     -0.67356100
H          -0.16830200      0.70592900      0.18119400
H          -1.61875600     -0.30588800      0.33213500
H          -0.40590600     -0.28940700      1.63756800
H           2.16936400      0.55477700      0.42306400
H           2.32975100     -0.02940300     -1.23401600
H           4.22934500     -0.73104900      1.09022600
H           4.51720500      0.52947500     -0.11499900
H          -0.29242700     -2.38380500      0.16568700
H           0.06296200     -1.36335800     -1.22919400
H           2.09653100     -2.41995900     -0.34783400
H           1.82582400     -1.75822100      1.26627800
H           4.29167500     -2.47526600     -0.72097300
H           4.50649800     -1.20992900     -1.93544800
H           6.71905900     -0.56761500     -0.86267500
H           6.70998700     -2.27849800     -1.34533400
H           6.48621300     -1.83649900      0.36196400
