23
b3lypvdz=-276.184737202811 
C          -0.47815400     -0.22636400      0.48911500
C          -1.83824700      0.16370600     -0.14894300
C          -3.12373100     -0.57134800      0.28997500
C          -4.35313000      0.09151100     -0.35302700
C          -0.55737100     -0.37677700      2.01649800
C          -3.12824300     -2.07955900     -0.00348400
C           0.20219300     -1.44773200     -0.15316600
H           0.19234600      0.63039400      0.28328300
H          -2.00077800      1.23678100      0.06619100
H          -1.74460300      0.08971300     -1.25080200
H          -3.22228400     -0.44070800      1.38495000
H          -5.28537800     -0.37641200      0.00610700
H          -4.40496300      1.16825500     -0.11752900
H          -4.33258400     -0.01068700     -1.45398800
H          -0.97432900      0.52517500      2.49679800
H          -1.19106300     -1.23065300      2.31265000
H           0.44315400     -0.55281000      2.44672000
H          -2.36379700     -2.62291300      0.57054000
H          -4.10565900     -2.52152600      0.25745200
H          -2.94678000     -2.28045600     -1.07487000
H           1.22147800     -1.57698900      0.24980300
H          -0.34489800     -2.38384600      0.03950400
H           0.29062000     -1.32595700     -1.24637700
