18
b3lypvdz=-235.679135653484 
C           2.50476200     -0.35379800     -0.05983000
C           4.01185500     -0.43028200      0.22091500
C           4.23588400     -0.94537900      1.66159300
C           4.67266900     -1.40805800     -0.77679900
C           4.15375600      2.11138400     -0.14313900
C           4.70287300      0.91738700      0.09929400
H           1.99575600      0.34304500      0.62487300
H           2.04342500     -1.34628500      0.07636900
H           2.30093400     -0.02428800     -1.09182900
H           3.83063700     -1.96554000      1.77643500
H           5.30936600     -0.97587500      1.91238400
H           3.73606600     -0.29219100      2.39380600
H           5.75599800     -1.50094400     -0.58837300
H           4.22724100     -2.41367200     -0.69067800
H           4.54013100     -1.06294100     -1.81588000
H           3.08107200      2.24646900     -0.30694600
H           4.77312900      3.01111400     -0.19303200
H           5.79084600      0.86915500      0.25103700
