17
b3lypvdz=-197.619186749147 
C           2.46169300     -0.39492800     -0.00160100
C           3.98726500     -0.40285000      0.09495700
C           6.92446200     -0.16310200     -1.05222900
C           4.65110200     -1.37197100     -0.88877400
C           6.17853400     -1.46950600     -0.76311300
H           2.01231500      0.32262900      0.70286900
H           2.03850400     -1.38936500      0.22380000
H           2.12506400     -0.11631200     -1.01561800
H           4.29049900     -0.67031200      1.12513600
H           4.36690400      0.61963200     -0.08015900
H           6.68018100      0.62352700     -0.32025100
H           8.01686800     -0.31042800     -1.02294200
H           6.66651300      0.22730500     -2.05309400
H           4.21791700     -2.37920300     -0.74215900
H           4.38669100     -1.07290300     -1.92204900
H           6.54052500     -2.25075400     -1.45468100
H           6.43616200     -1.82386100      0.25270900
