18
b3lypvdz=-235.68392610054 
C           1.84072500      0.92295200      0.40067700
C           6.74757900     -0.15880300     -1.06103100
C           2.58781300      2.21764300      0.08093700
C           6.31150500      0.90372200     -0.04256000
C           4.08464600      2.09804600     -0.05741400
C           4.81752300      0.99091900      0.11010800
H           0.75830400      1.10804800      0.49340300
H           1.98613200      0.16668800     -0.38867400
H           2.19009700      0.48247500      1.34959800
H           6.37709600     -1.15824300     -0.77265200
H           7.84605200     -0.21737900     -1.13306300
H           6.34829600      0.06688000     -2.06429300
H           2.18462400      2.65433600     -0.85395100
H           2.36383100      2.97700800      0.85554800
H           6.76525200      0.65250300      0.93634700
H           6.71234800      1.89187900     -0.33037600
H           4.60551100      3.02830700     -0.32492300
H           4.31936600      0.05091900      0.37922000
