23
b3lypvdz=-276.189976465691 
C           0.27694500      1.01534700     -0.01102100
C           1.77033400      0.88829600      0.35614600
C          -0.51263300     -0.27648800      0.24033600
C           2.50690200     -0.31056600     -0.24956100
C           4.02331100     -0.27732300     -0.02496800
C          -0.35199800      2.19830000      0.73699600
C           4.72427600     -1.55510500     -0.49028600
H           0.21747800      1.23355300     -1.09590700
H           2.27939100      1.82105400      0.04685400
H           1.86345600      0.85000400      1.45967500
H          -1.58223300     -0.13840200      0.00893800
H          -0.43646800     -0.59139400      1.29707700
H          -0.14887800     -1.10898300     -0.38179700
H           2.10701700     -1.24639200      0.18071300
H           2.30033300     -0.36949700     -1.33606100
H           4.22892900     -0.11341400      1.04967300
H           4.45227900      0.59842200     -0.54598700
H          -1.39772900      2.36257200      0.42874200
H          -0.35137700      2.02345100      1.82837100
H           0.20645500      3.13154200      0.55230900
H           5.80532900     -1.53207900     -0.27398900
H           4.30506500     -2.44178600      0.01536200
H           4.60411800     -1.71201400     -1.57671300
