21
b3lypvdz=-274.965102840102 
C           4.14890900     -0.42681300      0.29641500
C           4.42440400     -0.87864300      1.74335600
C           2.48576400      2.28163700     -0.07954500
C           4.68811900     -1.43457700     -0.75283400
C           6.20027800     -1.68639800     -0.75418800
C           3.97860200      2.10575600     -0.08439400
C           4.67830100      0.97110400      0.07142500
H           3.05356500     -0.41286800      0.16002600
H           4.09594800     -1.92030000      1.90413300
H           5.49710800     -0.81807100      1.99272600
H           3.88532400     -0.23808800      2.45816000
H           1.94142400      1.35020200      0.13498200
H           2.12653500      2.66764800     -1.05140200
H           2.18073400      3.02873700      0.67386900
H           4.16763600     -2.39625900     -0.58823600
H           4.37860500     -1.08463000     -1.75381600
H           6.77390900     -0.77872200     -1.00377700
H           6.46290100     -2.44906200     -1.50543300
H           6.56293100     -2.05332800      0.21996200
H           4.55323200      3.02875000     -0.23405100
H           5.77307300      1.05622600      0.05782300
