23
b3lypvdz=-276.187404433628 
C          -0.61389300     -0.37526900      0.48972100
C          -1.85614100      0.33390700     -0.09584300
C          -3.17309600     -0.35184800      0.31906600
C          -4.41583900      0.12918600     -0.43918200
C          -5.69807900     -0.61075200     -0.05123400
C          -0.52491400     -0.43910000      2.01830900
C          -1.85262900      1.83887500      0.21742100
H           0.28436200      0.13755600      0.09840700
H          -0.57075000     -1.40278200      0.08527800
H          -1.77450900      0.22341200     -1.19560800
H          -3.06639300     -1.44282400      0.15897100
H          -3.33667200     -0.21493500      1.40575000
H          -4.55934100      1.21121600     -0.26563600
H          -4.24237300      0.01116400     -1.52640400
H          -6.56446500     -0.23239600     -0.61746000
H          -5.61956700     -1.69409300     -0.25063800
H          -5.92050800     -0.48667000      1.02323200
H          -0.57389600      0.56026400      2.48153100
H          -1.33390900     -1.04592900      2.45631500
H           0.42784700     -0.89723700      2.33145800
H          -0.88599500      2.29519600     -0.05685100
H          -2.63372200      2.37812100     -0.33992600
H          -2.02211700      2.03533800      1.29052400
