14
b3lypvdz=-158.335197970629 
C           4.03681900     -0.42727000      0.08930300
C           2.51796300     -0.33107700     -0.06303100
C           4.68615200     -1.43975000     -0.85807000
C           6.20525100     -1.53161700     -0.70648700
H           4.28502800     -0.69993900      1.13296400
H           4.49090000      0.56746200     -0.08168600
H           2.08301300      0.40415300      0.63235300
H           2.03125700     -1.30201400      0.13669000
H           2.23697400     -0.02572000     -1.08634800
H           4.23863400     -2.43671300     -0.68194500
H           4.43207300     -1.17196300     -1.90143400
H           6.68985200     -0.56156500     -0.91607200
H           6.64123000     -2.27286700     -1.39480900
H           6.48845300     -1.82622200      0.31927100
