23
b3lypvdz=-276.187829931167 
C           0.37066400      1.01069000      0.12287500
C           1.87947600      0.94247100      0.44010200
C          -0.41953100     -0.27854800      0.34891700
C           2.58219700     -0.20802700     -0.30544300
C           4.09110100     -0.33802400     -0.05882100
C           2.51441600      2.31614000      0.18474800
C           4.65021600     -1.68196700     -0.53447900
H          -0.06620100      1.81278200      0.74498000
H           0.24229700      1.34582400     -0.92490900
H           1.98268000      0.72431400      1.52327500
H          -1.50159400     -0.10101200      0.23376700
H          -0.25334700     -0.67856300      1.36549500
H          -0.14295300     -1.07242900     -0.36280100
H           2.10616800     -1.15435800      0.00680700
H           2.39395300     -0.12455200     -1.39460800
H           4.29434700     -0.22113500      1.02273600
H           4.63081600      0.48765300     -0.55414300
H           3.56704800      2.35922900      0.50621600
H           2.47818800      2.57537200     -0.88871200
H           1.97091300      3.10335900      0.73242000
H           5.72824900     -1.77653500     -0.32299000
H           4.13995900     -2.51914300     -0.02792200
H           4.50824000     -1.82483900     -1.62031300
