14
b3lypvdz=-158.333863496709 
C           1.86506600      0.92353700      0.49112300
C           2.53838100     -0.29335500     -0.15669700
C           4.25083700     -0.87073200      1.68223400
C           4.01914500     -0.46798900      0.21971200
H           0.82529600      1.03372800      0.14046100
H           2.40381400      1.85324100      0.23667500
H           1.83507400      0.84076100      1.59099400
H           1.98240200     -1.21006800      0.11773400
H           2.45872100     -0.20155900     -1.25555900
H           3.72702800     -1.81289800      1.91979300
H           5.32402300     -1.02291800      1.88679000
H           3.88892400     -0.10072500      2.38363700
H           4.46769500     -1.23499400     -0.43729100
H           4.56219500      0.47246900      0.00619200
