20
b3lypvdz=-236.905807796751 
C           0.57098500      0.85468400      0.13796100
C          -0.61462600     -0.07907800      0.40877400
C          -1.92574200      0.40866500     -0.22436000
C          -3.16387300     -0.38184800      0.21920500
C          -4.46482100      0.10371100     -0.43363500
C          -5.71775600     -0.62231700      0.07084900
H           1.49692500      0.47092200      0.59749200
H           0.38543900      1.86068700      0.55267900
H           0.75439700      0.96785900     -0.94464300
H          -0.75138100     -0.17965100      1.50173500
H          -0.38160900     -1.09132600      0.03021100
H          -2.07344900      1.47648200      0.03007400
H          -1.83682700      0.36028100     -1.32700300
H          -3.01945600     -1.45475600     -0.01429500
H          -3.25932200     -0.30904600      1.32017300
H          -4.57595100      1.18960300     -0.24898500
H          -4.38890700     -0.02147300     -1.53068300
H          -6.62536900     -0.23884600     -0.42376400
H          -5.66220800     -1.70733700     -0.12853600
H          -5.84535100     -0.48581600      1.15925200
