20
b3lypvdz=-236.904846280906 
C           0.40751400      1.05068800     -0.05813900
C           1.86654800      0.95387600      0.42804400
C          -0.49947100     -0.13132300      0.30289200
C           2.57344100     -0.32751600     -0.03580100
C          -1.97667500      0.13562300      0.00207600
C           2.64538500      2.20741200      0.00987100
H          -0.03024400      1.97405300      0.36624500
H           0.40013500      1.19510100     -1.15774900
H           1.84492900      0.93059200      1.53637100
H          -0.38118600     -0.36903900      1.37728300
H          -0.16990100     -1.03334500     -0.24207800
H           3.62309700     -0.34109300      0.30328100
H           2.08927200     -1.23073300      0.36775600
H           2.57595100     -0.41192700     -1.13787900
H          -2.61155400     -0.72380600      0.27411900
H          -2.34678400      1.00993800      0.56479300
H          -2.13772100      0.34396400     -1.07034800
H           3.66861300      2.20543300      0.42033900
H           2.72501000      2.27557300     -1.09024300
H           2.14514200      3.12452900      0.36386900
