20
b3lypvdz=-236.904410336839 
C           0.41428900      1.14772800      0.26462500
C           1.81500500      0.81524800      0.80347200
C          -0.58843600     -0.01353800      0.28715800
C           2.53280700     -0.32733500      0.07971900
C          -2.00321800      0.39889300     -0.13412900
C          -2.98345400     -0.77292600     -0.21508900
H           0.00125900      1.98583800      0.85569600
H           0.50338900      1.52506700     -0.77231900
H           2.43542400      1.72775100      0.73986200
H           1.74075600      0.56832100      1.87968700
H          -0.62491400     -0.45445800      1.30247100
H          -0.23854800     -0.82254800     -0.37912500
H           3.54683300     -0.47757700      0.48514100
H           1.99208300     -1.28180200      0.18910200
H           2.63368200     -0.12003300     -1.00053000
H          -2.38642300      1.15869600      0.57212100
H          -1.95639300      0.90288400     -1.11790100
H          -3.98646100     -0.43572900     -0.52508400
H          -2.64439400     -1.52862700     -0.94476400
H          -3.08688700     -1.28355300      0.75828700
