17
b3lypvdz=-197.617965784159 
C           3.99266700     -0.50910300      0.24602800
C           6.85380200     -0.13297100     -1.08660400
C           4.26218800     -0.88105600      1.70880800
C           4.64785600     -1.44076600     -0.78573600
C           6.18526500     -1.48088000     -0.78883700
H           2.90176200     -0.51727500      0.06915800
H           4.31732200      0.53231300      0.06601000
H           6.68042200      0.60281600     -0.28373500
H           7.94529500     -0.24368400     -1.19912400
H           6.46429100      0.30398700     -2.02319700
H           3.95357900     -1.92124800      1.91771100
H           5.33060200     -0.79232800      1.96887500
H           3.70236300     -0.22719200      2.39657600
H           4.26902600     -2.46813900     -0.62237400
H           4.30085000     -1.14314200     -1.79357800
H           6.50636600     -2.21821500     -1.54640500
H           6.55484500     -1.87181600      0.17692400
