23
b3lypvdz=-276.187373144828 
C          -0.55284900     -0.30341100      0.51249400
C          -1.87213300      0.18692000     -0.10809700
C          -3.15616200     -0.57309600      0.28105700
C          -4.37297700      0.09472900     -0.39026300
C          -5.74504200     -0.44152500      0.03383600
C          -0.53447800     -0.33419200      2.04356400
C          -3.06353400     -2.07016400     -0.05342900
H           0.25326200      0.36362800      0.15737400
H          -0.29965500     -1.30525200      0.12151100
H          -2.00971400      1.25298600      0.15600000
H          -1.77242800      0.15756100     -1.21080800
H          -3.29337600     -0.47083500      1.37635300
H          -4.33514000      1.17868800     -0.17284500
H          -4.26632600     -0.00090900     -1.48914500
H          -6.55391000      0.13762900     -0.44013100
H          -5.88845200     -1.49601300     -0.25604100
H          -5.88082700     -0.37144200      1.12772000
H          -0.78956900      0.65240000      2.46992200
H          -1.25330000     -1.06326300      2.45271200
H           0.46302700     -0.61360600      2.42151500
H          -2.20675200     -2.55123700      0.44431800
H          -3.96427200     -2.61856400      0.26502600
H          -2.94529100     -2.22313500     -1.14204100
