20
b3lypvdz=-236.902719350437 
C           1.88470600      0.90886800      0.53164300
C           2.50161200     -0.31689600     -0.16081700
C           4.00623900     -0.48807400      0.19145600
C           4.26351500     -0.82926100      1.66856900
C           1.65813100     -1.57543400      0.09673800
C           4.70290300     -1.50212800     -0.72758800
H           0.85768000      1.08801800      0.17261000
H           2.47581100      1.81802900      0.32702000
H           1.83090000      0.78317000      1.62688000
H           2.46488200     -0.11889900     -1.24997400
H           4.47466800      0.49699800     -0.00184800
H           3.90203900     -1.84143500      1.92042800
H           5.34361400     -0.80083800      1.88955800
H           3.77123800     -0.11998200      2.35181400
H           0.62360600     -1.42764300     -0.25626100
H           2.05835200     -2.45523200     -0.43185400
H           1.60758600     -1.82169200      1.17140100
H           5.78720900     -1.53779900     -0.52770800
H           4.30956100     -2.52284900     -0.57946400
H           4.56734600     -1.24002100     -1.79110200
