20
b3lypvdz=-236.906163249245 
C          -0.57463700     -0.32951800      0.52115700
C          -1.80668800      0.26463200     -0.17254500
C          -3.12646600     -0.40187400      0.23597200
C          -4.35928600      0.19092300     -0.46193100
C          -5.68351000     -0.43725800     -0.00899800
C          -6.91802000      0.16978500     -0.68714400
H           0.34854200      0.17442700      0.19054500
H          -0.63939100     -0.22195700      1.61854200
H          -0.46915300     -1.40494100      0.29397500
H          -1.86292800      1.34669600      0.05218700
H          -1.68349900      0.17752700     -1.26892100
H          -3.07035500     -1.48536700      0.01342800
H          -3.25084400     -0.31199600      1.33288400
H          -4.39199100      1.28241300     -0.27483900
H          -4.25475000      0.06195200     -1.55703600
H          -5.65612100     -1.52516900     -0.21142800
H          -5.77919900     -0.32370400      1.08772600
H          -7.84364800     -0.31116100     -0.33025700
H          -6.99892800      1.25048000     -0.47448500
H          -6.87772800      0.04431300     -1.78383200
