20
b3lypvdz=-236.903406817168 
C          -0.47078400     -0.19124500      0.50477800
C          -1.81284300      0.32771500     -0.06281800
C          -3.05168100     -0.52034000      0.25723100
C          -4.32075000     -0.03787000     -0.45141700
C          -0.49718200     -0.36488500      2.03141700
C          -0.00841600     -1.48287600     -0.18751500
H           0.28247800      0.58596700      0.27346900
H          -1.98413200      1.35646100      0.30654800
H          -1.71042700      0.41210900     -1.16162600
H          -2.86782800     -1.57388700     -0.02103800
H          -3.22699200     -0.51634300      1.34822200
H          -5.19218500     -0.64921900     -0.16559700
H          -4.55011200      1.01115500     -0.19411200
H          -4.21952100     -0.09556300     -1.54958400
H          -0.80786700      0.56170600      2.54414100
H          -1.19645700     -1.16075200      2.33848000
H           0.49835100     -0.64555100      2.41509500
H           0.96590700     -1.81640000      0.20710600
H          -0.72240600     -2.30902700     -0.02829800
H           0.10064800     -1.33565500     -1.27548200
