17
b3lypvdz=-197.619915172939 
C           0.28458600      0.95825300     -0.01800500
C           1.76571900      0.92728500      0.40855000
C          -0.48678700     -0.28992500      0.43670700
C           2.55835900     -0.28734500     -0.09186700
C          -0.38849800      2.24289500      0.48841200
H           0.25561000      0.97999400     -1.12621500
H           2.25308200      1.84885700      0.04045900
H           1.82313000      0.97087500      1.51408300
H          -1.55057600     -0.22280500      0.15104700
H          -0.43908300     -0.41180000      1.53441900
H          -0.08495500     -1.20727200     -0.02240600
H           3.62544500     -0.19627500      0.17233500
H           2.19145500     -1.22653800      0.35291000
H           2.49103000     -0.38494600     -1.19011300
H          -1.43482000      2.30962000      0.14524800
H          -0.39283700      2.28059600      1.59295000
H           0.14104300      3.13983300      0.12448800
