23
b3lypvdz=-276.188399934808 
C           1.87440600      0.91115700      0.60606700
C           2.56310800     -0.20374900     -0.19404200
C           4.09029100     -0.25457300     -0.07118400
C           7.09611900     -0.39185300     -1.01883000
C           2.18671400      2.33586000      0.13517300
C           4.71192000     -1.38228600     -0.90200200
C           6.21661800     -1.60109200     -0.69005100
H           0.78219300      0.75205400      0.55070900
H           2.14351000      0.80982100      1.67473600
H           2.15226000     -1.17571000      0.13662400
H           2.28782800     -0.11065100     -1.26275900
H           4.36475000     -0.38932100      0.99393800
H           4.52331000      0.71305800     -0.37905100
H           6.91416400      0.45319200     -0.33517400
H           8.16612700     -0.64959300     -0.94595700
H           6.90924600     -0.02905500     -2.04590900
H           3.25343900      2.58929400      0.25422700
H           1.93063900      2.46671800     -0.93141600
H           1.60801500      3.07804100      0.70773100
H           4.18489600     -2.32676800     -0.66897600
H           4.51842500     -1.18410800     -1.97434100
H           6.53607700     -2.45394600     -1.31510800
H           6.39464500     -1.91088800      0.35679500
