21
b3lypvdz=-274.986888524996 
C           0.37808600      0.95842500     -0.11474500
C           1.81428100      0.93383900      0.41817100
C          -0.50478200     -0.24414100      0.27306100
C           2.62450000     -0.29669800     -0.00192100
C          -1.93603100      0.23245500     -0.03224000
C          -0.44417900      2.16855200      0.38733300
C          -1.93868100      1.75197600      0.29412000
H           0.41348300      0.99547500     -1.22191800
H           2.33400300      1.84927700      0.07951800
H           1.78632600      0.99459900      1.52337900
H          -0.39023900     -0.44779600      1.35532000
H          -0.24084700     -1.17006700     -0.26152500
H           3.65671700     -0.24628200      0.38094800
H           2.17605900     -1.22600100      0.38647000
H           2.67822700     -0.38954300     -1.10064400
H          -2.69990700     -0.32793300      0.52833900
H          -2.15063200      0.07646600     -1.10386000
H          -0.17171800      2.37443800      1.43779700
H          -0.22010800      3.08602400     -0.17973400
H          -2.47457900      2.32184500     -0.48100300
H          -2.46147800      1.95558800      1.24253400
