20
b3lypvdz=-236.904265056133 
C          -0.49881100     -0.07066200      0.36983100
C           2.62313300     -0.26418100     -0.03823500
C          -1.97025400      0.00896700     -0.04796000
C           4.09470100     -0.60158300      0.21459800
C           0.23440100     -1.26090900     -0.26066800
C           1.68939300     -1.46037400      0.19235600
H           0.00918200      0.86941700      0.09051800
H          -0.43117600     -0.14055100      1.47234500
H           2.32288200      0.57434900      0.61428200
H           2.50443100      0.10200800     -1.07569300
H          -2.51442100     -0.91176200      0.22654400
H          -2.48678100      0.85349100      0.43559400
H          -2.06995500      0.13601500     -1.14024700
H           4.25293200     -0.95931400      1.24754600
H           4.44368800     -1.39997200     -0.46215000
H           4.74630000      0.27425000      0.05957100
H          -0.33028200     -2.18469900     -0.03199800
H           0.20709800     -1.15495100     -1.36260500
H           2.10124500     -2.33508800     -0.34396800
H           1.70709600     -1.73085200      1.26583900
