17
b3lypvdz=-197.618430843579 
C           2.51505800     -0.33269200     -0.09043400
C           4.02135300     -0.49600900      0.21293200
C           4.28984100     -0.85298900      1.68361900
C           1.64739400     -1.58380800      0.10388400
C           4.70388800     -1.49462500     -0.73568400
H           2.11619700      0.47874800      0.54638100
H           2.40459600      0.01860500     -1.13311800
H           4.48291900      0.49386700      0.03085600
H           3.95334000     -1.87652300      1.92415000
H           5.36858200     -0.79779400      1.90957000
H           3.76987400     -0.15939300      2.36607300
H           0.59820900     -1.36732500     -0.16012300
H           1.98013200     -2.41779900     -0.53614700
H           1.65755100     -1.93573300      1.14966900
H           5.79441200     -1.51962300     -0.56652600
H           4.32461700     -2.52112100     -0.58698200
H           4.53563700     -1.22198400     -1.79242100
