20
b3lypvdz=-236.904660892634 
C           0.30018800      0.95816800     -0.02582100
C           1.77567800      0.85804200      0.41249300
C          -0.52663100     -0.27895500      0.35085900
C           2.52084300     -0.40904800     -0.02507600
C           4.02942200     -0.32469900      0.21575600
C          -0.32863300      2.23933100      0.53701600
H           0.28792300      1.03520900     -1.13143600
H           2.30944200      1.74107300      0.01275100
H           1.83208200      0.95169500      1.51582500
H          -1.58013100     -0.15837700      0.04704000
H          -0.51059200     -0.45797500      1.44116900
H          -0.14824500     -1.18854900     -0.14151300
H           2.11213000     -1.28432000      0.50959400
H           2.32837000     -0.59726200     -1.09847000
H           4.25914400     -0.16978100      1.28441400
H           4.54813600     -1.24195700     -0.10820800
H           4.47683700      0.51739600     -0.33924500
H          -1.36003700      2.37871000      0.17309700
H          -0.36485300      2.21177700      1.64107100
H           0.25402900      3.13042000      0.24818400
