15
b3lypvdz=-196.393387706425 
C           6.70436400     -0.14476700     -1.05819700
C           6.19985600      0.83936900      0.01587500
C           6.33215800     -1.60846000     -0.80169700
C           4.07786300      2.18905800     -0.08784900
C           4.70659500      1.01898500      0.05983700
H           7.80455100     -0.05694100     -1.10796900
H           6.32281600      0.17432700     -2.04485900
H           6.55519500      0.48200500      1.00344200
H           6.66617400      1.82666200     -0.14798600
H           5.24369700     -1.77865200     -0.85780600
H           6.80758800     -2.27536300     -1.53873300
H           6.66903600     -1.93416100      0.19894000
H           2.98816800      2.27062200     -0.04350000
H           4.63734300      3.11683300     -0.25159000
H           4.10639600      0.11558200      0.23059200
