20
b3lypvdz=-236.90057767258 
C          -0.46957800     -0.19678000      0.40559300
C          -1.85050900      0.18056600     -0.16762200
C          -3.08167700     -0.57542900      0.36197000
C          -3.14977300     -2.07568100      0.05586600
C           0.22470000     -1.41099900     -0.22940000
C           1.67245800     -1.59039800      0.23798600
H           0.19997300      0.67402900      0.27020900
H          -0.54989000     -0.34576800      1.50079800
H          -2.01839500      1.25213200      0.04539100
H          -1.81402400      0.09515500     -1.27181800
H          -3.97734600     -0.08944900     -0.06612500
H          -3.15320100     -0.42137900      1.45577200
H          -2.36039600     -2.64311600      0.57237000
H          -4.11556800     -2.49980700      0.37840700
H          -3.04348100     -2.27456200     -1.02507600
H          -0.34394200     -2.33204500     -0.01702700
H           0.20925200     -1.29026200     -1.32942400
H           2.28042200     -0.69601000      0.01279300
H           2.15479600     -2.44835400     -0.25773700
H           1.72768000     -1.75984300      1.32777300
