14
b3lypvdz=-158.333910282054 
C           0.37946400      1.00325000      0.06988600
C           1.86489200      0.94049500      0.45185200
C          -0.43700200     -0.23012300      0.48768000
C          -0.56994600     -0.42166700      2.00345700
H          -0.07828600      1.90745300      0.51386700
H           0.29728000      1.12526200     -1.02588000
H           2.34123500      0.03134500      0.04407600
H           2.41341300      1.80844900      0.04952200
H           2.01076000      0.93538400      1.54528200
H          -1.44831400     -0.14556600      0.05049200
H           0.01657300     -1.13418300      0.03880500
H          -1.00079600      0.47689900      2.47943500
H          -1.23433400     -1.27022200      2.23686400
H           0.40226000     -0.62317700      2.48266200
