20
b3lypvdz=-236.90213857786 
C          -0.52638900     -0.31716700      0.51939000
C          -1.82722100      0.24486200     -0.09934400
C          -3.10035500     -0.52225300      0.30892800
C          -0.49862100     -0.43094200      2.04802900
C          -3.07786100     -2.02529700      0.00886900
C          -1.99537300      1.74786500      0.17589500
H           0.30955200      0.32750100      0.19095500
H          -0.31863900     -1.31061800      0.08451500
H          -1.71925300      0.12493400     -1.19586400
H          -3.95465500     -0.06546100     -0.22272600
H          -3.29976200     -0.36153800      1.38507400
H          -0.68021500      0.53841200      2.54175500
H          -1.25405000     -1.14004400      2.42369800
H           0.48456600     -0.79502100      2.39011100
H          -2.29763700     -2.55313100      0.58043100
H          -4.04145900     -2.49470100      0.26772000
H          -2.88991300     -2.21756700     -1.06204900
H          -1.11875300      2.32114300     -0.17003300
H          -2.87938500      2.15005200     -0.34664300
H          -2.12897900      1.95467200      1.25188900
