20
b3lypvdz=-236.905926183709 
C           0.34147600      0.97529000      0.23491300
C           1.85714700      0.91530100      0.43306800
C           2.52400700     -0.25763000     -0.29263800
C           4.03451900     -0.35177100     -0.05831200
C           4.71821600     -1.46575900     -0.85492800
C           6.21695100     -1.59098400     -0.57365000
H          -0.14662300      0.04995100      0.58830600
H          -0.11066200      1.81404400      0.78796600
H           0.08087000      1.09646600     -0.83083500
H           2.31451300      1.86120800      0.08598700
H           2.08569400      0.85006400      1.51372600
H           2.04490000     -1.20215200      0.03237200
H           2.32576600     -0.17976900     -1.37954400
H           4.22297000     -0.50910900      1.02204400
H           4.50707800      0.61812900     -0.30980600
H           4.22197100     -2.42923100     -0.63003500
H           4.55613300     -1.28576300     -1.93474400
H           6.74944800     -0.64982800     -0.79897900
H           6.68130800     -2.38430600     -1.18084400
H           6.40661800     -1.83034900      0.48723100
