12
b3lypvdz=-157.108981406541 
C           1.82856600      0.94653700      0.43859500
C           4.09025400      2.04797500     -0.09387000
C           4.78919300      0.92293400      0.08665000
C           2.60024800      2.21158500      0.06526900
H           0.75403800      1.16306700      0.55252300
H           1.93504500      0.16508200     -0.33235800
H           2.18975300      0.52390900      1.39121500
H           4.62873800      2.95755500     -0.39149700
H           4.31497900     -0.01614000      0.38347000
H           5.87277200      0.89964700     -0.05810300
H           2.19394600      2.63189000     -0.87593000
H           2.41236900      3.00176000      0.81833500
