20
b3lypvdz=-236.903360456038 
C           0.43209000      1.07704600      0.11690800
C           1.89995300      0.72800200      0.37506100
C          -0.58610300      0.00531000      0.55370000
C          -1.97253700      0.31441600     -0.04193600
C          -3.03529100     -0.76342700      0.18391000
C          -0.62506700     -0.16718800      2.07718800
H           0.17951000      2.03069700      0.61975000
H           0.29700900      1.26300400     -0.96385000
H           2.15909100     -0.25125800     -0.06516400
H           2.57181100      1.47449400     -0.07832300
H           2.13913200      0.68091200      1.45020000
H          -0.25393600     -0.95743500      0.11132300
H          -2.33047600      1.28217800      0.35910600
H          -1.84992200      0.46691600     -1.12947900
H          -3.95051300     -0.53578800     -0.38642700
H          -2.67639700     -1.75407700     -0.14718800
H          -3.32332600     -0.85440200      1.24390600
H          -0.95182600      0.76774300      2.56966600
H          -1.32474700     -0.95952500      2.38482400
H           0.36394400     -0.42941900      2.48442500
