15
b3lypvdz=-196.402064785065 
C           4.10355000     -0.45619000      0.31716300
C           2.56201200      2.27202300     -0.04751400
C           6.23827400      0.87191400     -0.03751700
C           4.04959800      2.04323100     -0.10196700
C           4.72894100      0.89295900      0.05031700
H           3.00410400     -0.43260700      0.35261300
H           4.46541200     -0.86520800      1.27909400
H           4.39882600     -1.18163400     -0.46313800
H           1.98618200      1.36187500      0.17963900
H           2.19318300      2.67283500     -1.01082400
H           2.31260400      3.02595400      0.72118900
H           6.57935100      0.18209300     -0.83137000
H           6.68530900      0.51023400      0.90822700
H           6.65352700      1.86951800     -0.25225900
H           4.63782500      2.95030300     -0.29795400
