20
b3lypvdz=-236.904534499469 
C           0.32342900      0.93783100      0.01161400
C           1.80554600      0.87960700      0.40559500
C           2.54511600     -0.33243900     -0.17812200
C           4.02295500     -0.43610600      0.23535400
C           4.23276500     -0.82884400      1.70371300
C          -0.38006900      2.20418900      0.51540000
H          -0.19455000      0.04544500      0.40966100
H           0.23498000      0.88077200     -1.08988700
H           2.30919800      1.80515200      0.06475900
H           1.87883800      0.87383500      1.50924800
H           2.02106300     -1.26116800      0.12009400
H           2.48418400     -0.28354400     -1.28144400
H           4.52258500     -1.18355800     -0.40646800
H           4.52882100      0.52702200      0.03283800
H           3.74223700     -1.79254400      1.92663200
H           5.30539800     -0.93692800      1.93652600
H           3.82035000     -0.07650600      2.39599100
H          -1.44032000      2.22367000      0.21244500
H          -0.34337600      2.27032500      1.61726400
H           0.09985200      3.11158700      0.11008600
