23
b3lypvdz=-276.190445847629 
C           0.56272500      0.97063500      0.17389400
C          -0.52007200     -0.10487800      0.34716900
C          -1.86309100      0.36827700     -0.24361000
C          -3.09638900     -0.41796700      0.21892800
C          -4.40447000      0.08148700     -0.40590500
C          -5.65421300     -0.63978500      0.10846700
C          -0.06155400     -1.44367000     -0.25039100
H           1.52224600      0.64897700      0.61195600
H           0.27138600      1.91484100      0.66427400
H           0.73810000      1.19016300     -0.89438200
H          -0.66875400     -0.25512100      1.43505600
H          -2.01153800      1.43148800      0.02529400
H          -1.79827900      0.33593600     -1.34957800
H          -2.97519000     -1.49190400     -0.01813000
H          -3.17013300     -0.34727700      1.32212300
H          -4.50405500      1.16671100     -0.21024200
H          -4.34536100     -0.03102600     -1.50556800
H          -6.56661900     -0.24343600     -0.36608000
H          -5.61339900     -1.72290000     -0.10414500
H          -5.76464400     -0.51762200      1.20057400
H           0.88155900     -1.78074100      0.21125900
H          -0.80610400     -2.24169600     -0.09587100
H           0.11135000     -1.35009100     -1.33799400
