51
b3lypvdz=-1569.402928669554 
O          -7.08534700     -0.40785000      2.69186600
O          -4.14234600      2.34209300     -0.11495600
O          -5.09023300     -1.43116600      2.48864200
O          -8.17634700     -2.55085300     -2.19404000
O          -8.50535800     -0.32781600     -2.34044700
O           5.25489500     -2.67283300      0.06119800
N          -4.33084500      0.13998500      0.42435600
N           2.06350700      0.76867800     -0.50436900
N           4.60084000      0.06431400     -0.15666800
N           8.20620500      0.06409400      0.17557900
N           6.74696300      1.87345400     -0.04514900
N           7.49632900     -2.20783600      0.18414800
N           9.74932800     -1.68064200      0.22009500
C          -5.67563500      0.34965900      0.93822300
C          -6.78321900      0.21765700     -0.13118500
C          -6.92924000     -1.19048200     -0.70426400
C          -3.59559500      1.25299500      0.05081800
C          -2.12525400      1.06472100     -0.11911800
C          -5.88541000     -0.59821400      2.10751000
C           0.70023600      0.88773400     -0.37643400
C           2.97386600      1.87425500     -0.38421200
C          -1.33585000      2.21698200     -0.25920600
C          -1.47543500     -0.18509000     -0.13131700
C           0.04778700      2.14271500     -0.37722900
C          -0.09694000     -0.27733500     -0.26077900
C           4.39990900      1.37881700     -0.24119300
C          -7.94744400     -1.26618800     -1.81937800
C           5.85879400     -0.37485500     -0.01711400
C           6.91748600      0.54716100      0.03791000
C           5.48498900      2.27747500     -0.18500200
C           6.14892100     -1.84809200      0.07533400
C           8.42854900     -1.29913700      0.20706300
H          -5.74045500      1.38095000      1.32796700
H          -6.54856600      0.93117200     -0.93355700
H          -7.73657700      0.54393100      0.31265700
H          -5.96615700     -1.55340800     -1.10575700
H          -7.22813200     -1.92475900      0.06360400
H          -3.83504600     -0.62282700      0.87860700
H           2.73302500      2.50959800      0.49491600
H           2.91653300      2.54787300     -1.26328600
H          -1.84354500      3.18297500     -0.26437500
H          -2.05034700     -1.11117600     -0.05499000
H           2.49192800     -0.14126900     -0.35281900
H           0.62479600      3.06316000     -0.48063400
H           0.38870700     -1.25680900     -0.27381900
H           5.32101100      3.35854800     -0.25838600
H          -7.14073300     -1.04941000      3.42448100
H           8.96432100      0.73606500      0.10502900
H          -8.82419500     -2.50334500     -2.92144100
H          10.41727700     -1.07415800      0.68520000
H           9.86914700     -2.66930300      0.42099800
