9
b3lypvdz=-209.108447316906 
O           0.23152900     -1.32502000     -0.09327500
C          -0.03542300     -0.13508800     -0.04956800
N           0.83688200      0.78966800      0.46564100
C          -1.36724300      0.42933400     -0.53635600
H           1.76124000      0.46318700      0.72500700
H           0.68147200      1.78543300      0.38336600
H          -1.48370100      1.51045600     -0.35693700
H          -2.18168000     -0.10698300     -0.02745400
H          -1.46877800      0.22931300     -1.61542400
