12
b3lypvdz=-194.234030207718 
O          -1.22715200      1.81363200     -0.20286300
C          -3.93170200      0.46184500     -0.50139300
C          -2.64512800     -0.18805200      0.01519200
C          -1.36952100      0.43968500     -0.54999600
H          -1.88231500      2.31229700     -0.71166700
H          -4.82349100     -0.00245300     -0.05192500
H          -3.96265200      1.53555600     -0.24440200
H          -4.02363200      0.36973600     -1.59880400
H          -2.60927600     -0.10896300      1.11672300
H          -2.64404300     -1.26596800     -0.23436800
H          -0.48777800     -0.06565600     -0.12250600
H          -1.32620900      0.28934000     -1.65029000
