18
b3lypvdz=-326.96609792685 
O          -0.03349400     -1.30156000      0.35487700
N           1.09414700      0.61221800     -0.08757200
C          -2.60973600     -0.14585800      0.15200300
C          -1.35160000      0.65625100     -0.21511600
C          -3.85223500      0.36380800     -0.58805000
C          -2.83603000     -0.15716400      1.66875000
C          -0.05783900     -0.11305700      0.06634500
H           1.96488800      0.15871500      0.16553600
H           1.08279000      1.62124900     -0.16278600
H          -2.41056800     -1.18358500     -0.16209900
H          -1.32718000      1.62375900      0.31819900
H          -1.34998100      0.90540000     -1.29208000
H          -4.73782700     -0.22920300     -0.30805000
H          -4.07290900      1.41844100     -0.34422200
H          -3.73336700      0.28849100     -1.68258000
H          -1.96332100     -0.57872200      2.19065400
H          -3.71096900     -0.77193900      1.93572700
H          -3.01667100      0.86205500      2.05566300
