12
b3lypvdz=-194.234602263424 
C          -3.88853800      0.52210500     -0.44274800
O          -5.14195600     -0.06537300     -0.11455800
C          -2.70511300     -1.74906100     -0.44198100
C          -2.68273700     -0.29296000      0.03140400
H          -3.81155100      1.55840500     -0.05311200
H          -3.89128500      0.58975900     -1.54466900
H          -5.19279700     -0.12519200      0.85192000
H          -3.65039400     -2.23379300     -0.14920700
H          -1.87308100     -2.33041400     -0.01448600
H          -2.63450700     -1.81381300     -1.54203200
H          -1.76625800      0.21662600     -0.31981600
H          -2.63928100     -0.25538800      1.13838500
