8
b3lypvdz=-228.981523451605 
O           5.26218000     -0.21321400     -1.21120700
O           4.93747000     -0.30121400      1.01889600
C           3.05959700      0.19047400     -0.43116100
C           4.49391900     -0.12731800     -0.09196700
H           6.15897200     -0.43213700     -0.89630400
H           2.47837100      0.28109000      0.49409400
H           3.00649800      1.12718000     -1.00856700
H           2.64019300     -0.60636200     -1.06568400
