5
b3lypvdz=-189.683774901027 
O           5.25631400     -0.22490800     -1.21151500
O           4.91280300     -0.27868200      1.02909100
C           4.50721400     -0.13078300     -0.09401400
H           6.16365500     -0.43574200     -0.91622400
H           3.45971300      0.10471600     -0.37553700
