17
b3lypvdz=-197.621588517664 
C          -2.65185100     -0.24854200      0.03807200
C          -1.37471900      0.40222500     -0.52632100
C          -3.89334700      0.51734800     -0.45699700
C          -2.60624300     -0.20664500      1.57579000
C          -2.73314600     -1.71224500     -0.43420900
H          -1.29014400      1.45605800     -0.20940200
H          -0.47259300     -0.12551300     -0.17249600
H          -1.36595300      0.38041300     -1.62976300
H          -4.82004800      0.06938000     -0.05913600
H          -3.86874800      1.57226600     -0.13394400
H          -3.95970800      0.50368200     -1.55870900
H          -1.73589900     -0.76076400      1.96590300
H          -3.51155200     -0.65835100      2.01564700
H          -2.53503300      0.83081000      1.94487900
H          -3.63809100     -2.20663800     -0.04210400
H          -1.86064900     -2.29225300     -0.08867800
H          -2.76427700     -1.77642900     -1.53593200
