16
b3lypvdz=-362.866846263057 
O          -1.41370500      1.85153200     -0.25982900
O           0.07313800     -1.35637500      0.10917900
N           0.87101800      0.78636000      0.25937800
C          -2.61435300     -0.26127600      0.11102000
C          -1.41120000      0.43960300     -0.51158300
C          -0.08273300     -0.14563000      0.00158800
C           2.19212400      0.45625000      0.75559400
H          -2.17824100      2.23393200     -0.71314500
H           0.57603200      1.75311000      0.17981800
H          -3.54984700      0.07129900     -0.37026900
H          -2.67483000     -0.02930800      1.18731600
H          -2.51874500     -1.35012400     -0.01200400
H          -1.40737300      0.24786400     -1.60541300
H           2.97894300      0.73072900      0.03059100
H           2.40062900      0.97715100      1.70565500
H           2.22484600     -0.62951800      0.92130500
