14
b3lypvdz=-158.336102627846 
C          -3.87092700      0.52919300     -0.46919300
C          -2.60234600     -0.21547800      1.58923400
C          -2.73492600     -1.73369800     -0.42841300
C          -2.67609600     -0.27836700      0.05791700
H          -4.82264700      0.11398600     -0.09204400
H          -3.81636500      1.58334100     -0.14749700
H          -3.91121600      0.51563300     -1.57200300
H          -1.73118100     -0.77159000      1.97436700
H          -3.50580000     -0.65690100      2.04681900
H          -2.52087700      0.82536800      1.94525400
H          -3.64531500     -2.23548800     -0.05469800
H          -1.86658100     -2.31188700     -0.07011700
H          -2.74694500     -1.79112000     -1.53056000
H          -1.75278000      0.17960600     -0.34676700
