16
b3lypvdz=-271.605570244535 
O           0.22395500     -1.01068600      0.75822900
C          -2.60729900     -0.28941700      0.07958400
C          -1.34310500      0.41060900     -0.45226000
C          -2.67957900     -0.27293200      1.61339000
C          -2.76562700     -1.71312300     -0.47741900
C           0.00922600     -0.13509700     -0.04904000
H          -3.45743300      0.30775500     -0.30202500
H          -1.32689000      1.47378400     -0.13425900
H          -1.34820300      0.45842800     -1.55891400
H          -1.89149700     -0.90041800      2.05281700
H          -3.65418200     -0.65572000      1.95998300
H          -2.56115900      0.75010500      2.00974000
H          -3.69745200     -2.16957700     -0.10439300
H          -1.93092200     -2.36083000     -0.16631600
H          -2.81222900     -1.71288700     -1.58019600
H           0.86639600      0.37510400     -0.57062100
