13
b3lypvdz=-323.58501703449 
O           5.28993700     -0.22795600     -1.20671500
O           4.93755300     -0.31243500      1.01998100
N           0.79162700      0.78735200      0.47055000
C           2.18481300      0.46053900      0.77261400
C           3.08058000      0.20957000     -0.44983600
C           4.50826900     -0.14056200     -0.09832800
H           6.17763900     -0.47093500     -0.88311900
H           0.37309800      0.03431700     -0.08185000
H           0.75364900      1.61379300     -0.13253700
H           2.61497100      1.27809200      1.37564500
H           2.20301200     -0.42831900      1.42443400
H           3.10019100      1.09070500     -1.11639700
H           2.67936000     -0.61856100     -1.06394200
