14
b3lypvdz=-307.506115800613 
O          -1.35323700      1.80623900     -0.24192400
O           0.26868500     -1.29191700     -0.03254900
C          -2.61435000     -0.28768900      0.01281700
C          -1.37276800      0.41723400     -0.56098800
C          -2.78190100     -1.74659600     -0.42351400
C          -0.05829800     -0.12791000     -0.01239600
H          -2.14435700      2.20910500     -0.62740400
H          -3.49415000      0.30074900     -0.31170300
H          -2.58195800     -0.20777000      1.11420700
H          -1.34227200      0.25234500     -1.66155700
H          -3.71819700     -2.16469200     -0.02048200
H          -1.94574400     -2.36787600     -0.07370900
H          -2.81980400     -1.83246900     -1.52372200
H           0.60375100      0.66644800      0.42212300
