7
b3lypvdz=-153.749769874492 
O           4.92788100     -0.30294900      1.00924800
C           3.06325500      0.19006700     -0.43094700
C           4.50194600     -0.12245200     -0.10679500
H           2.47731000      0.26733700      0.49607100
H           3.00153300      1.13391600     -1.00183400
H           2.64490700     -0.60043000     -1.07917000
H           5.18296800     -0.20478900     -0.99927300
