19
b3lypvdz=-347.990538864442 
O          -1.65882200      1.91164600     -0.36470300
O          -5.15959200     -0.33393900      0.29053300
C          -2.68952800     -0.24561300      0.00702700
C          -1.61460400      0.54305100     -0.75919100
C          -4.07687500      0.35542500     -0.32299800
C          -2.41591500     -0.15381000      1.51893400
C          -2.65675500     -1.71290700     -0.44777500
H          -1.01861600      2.39863300     -0.90204600
H          -5.17021100     -0.09009600      1.22688400
H          -0.62208700      0.09663300     -0.53934500
H          -1.78692900      0.43792500     -1.85037000
H          -4.07647000      1.43149600     -0.06979100
H          -4.25318700      0.26688800     -1.40913400
H          -1.46746000     -0.65301100      1.78036000
H          -3.20915300     -0.65431500      2.09812700
H          -2.34328800      0.89552700      1.84267500
H          -3.45967400     -2.27534400      0.04987000
H          -1.69245700     -2.19070900     -0.20722200
H          -2.82217800     -1.80027900     -1.53613600
