6
b3lypvdz=-115.656586191678 
O          -1.37373200      1.84494500     -0.28762000
C          -1.39361000      0.44874000     -0.54174300
H          -2.09481500      2.23971100     -0.79807400
H          -2.33417700     -0.03895400     -0.21211200
H          -0.57036700      0.00387000      0.03833200
H          -1.22919900      0.19868800     -1.60998400
