12
b3lypvdz=-194.234112210158 
C          -3.90699200      0.52124000     -0.47232000
O          -5.11155600     -0.15373500     -0.12455200
C          -2.65482800     -0.21086100      0.00577100
C          -1.35109700      0.40510300     -0.51326900
H          -3.91173800      1.56373500     -0.08712500
H          -3.91282700      0.57948700     -1.57402100
H          -5.13504200     -0.21646100      0.84193300
H          -2.64637000     -0.21779400      1.11425300
H          -2.73152600     -1.26595900     -0.31351200
H          -1.24928700      1.45857500     -0.19808600
H          -0.47463400     -0.14239000     -0.13187400
H          -1.30960100      0.37736000     -1.61639800
