9
b3lypvdz=-209.094333333786 
O           0.15874800     -1.36258600      0.03190100
C          -0.05070000     -0.16317700      0.00462300
C           2.20553300      0.46915100      0.77424000
N           0.84404300      0.79363600      0.38040900
H          -1.02570900      0.28402300     -0.31317900
H           2.89979600      0.42796000     -0.08493000
H           2.57592800      1.21371600      1.49390700
H           2.19782100     -0.52184000      1.25008200
H           0.58844200      1.76411600      0.23944800
