14
b3lypvdz=-307.50562734224 
O          -5.08037400     -0.24755200     -0.20223900
O          -0.01407400     -1.25766300      0.53922700
C          -2.63264700     -0.21210700      0.00369200
C          -1.35558000      0.51935400     -0.39867400
C          -3.89785600      0.47520000     -0.50623600
C          -0.07538500     -0.20625000     -0.05342900
H          -5.14005400     -0.31686800      0.76245700
H          -2.67555900     -0.29071800      1.10605700
H          -2.60955700     -1.24765400     -0.37431600
H          -1.29042000      1.52094200      0.07122600
H          -1.32562400      0.72417300     -1.48763500
H          -3.94782900      1.51635200     -0.12067300
H          -3.87449000      0.53933500     -1.60769400
H           0.85794900      0.31525600     -0.39966300
