15
b3lypvdz=-233.520324080406 
O          -1.24988100      1.82281700     -0.19899800
C          -2.64104000     -0.20870100      0.04176500
C          -1.37965300      0.44662000     -0.54525800
C          -3.91773800      0.44837400     -0.50353600
C          -2.60269300     -0.18138700      1.57270300
H          -1.93378300      2.31147100     -0.67929500
H          -2.63394200     -1.26271300     -0.29890500
H          -0.48304000     -0.04361900     -0.13011200
H          -1.35398000      0.29847100     -1.64446600
H          -4.81997400     -0.03835300     -0.09978200
H          -3.97126200      1.51318800     -0.21121900
H          -3.96981500      0.39087000     -1.60481200
H          -1.77176700     -0.79127600      1.96354200
H          -3.53586500     -0.57160100      2.01071700
H          -2.45246700      0.85053800      1.92895600
