15
b3lypvdz=-287.677168850123 
O           0.19421000     -1.32694700     -0.03109000
N           0.83558100      0.81080900      0.38786500
C          -1.40800400      0.41507000     -0.50830100
C          -0.06640900     -0.13032600     -0.03378300
C           2.19664700      0.44126200      0.76177200
C           3.12022600      0.20919900     -0.43669600
H           0.62409100      1.79044200      0.23960700
H          -1.55893200      1.47697100     -0.25275300
H          -2.21068800     -0.17820200     -0.04843700
H          -1.48299900      0.29574900     -1.60225200
H           2.59493000      1.24065600      1.40861200
H           2.13251300     -0.47801200      1.36452400
H           4.13166100     -0.07210800     -0.09543700
H           3.20577500      1.11805200     -1.05857500
H           2.73119700     -0.60531500     -1.06845500
