10
b3lypvdz=-284.294361782506 
O          -1.40350800      1.85955100     -0.30594600
O           0.18016300     -1.33024000     -0.07486800
N           0.83472400      0.79994200      0.44049900
C          -1.36692400      0.45146700     -0.52000600
C          -0.03879000     -0.12941700     -0.02492900
H          -2.22448000      2.20712400     -0.68073000
H           1.70509600      0.48680500      0.85197800
H           0.54024200      1.76599300      0.51509900
H          -2.17077200     -0.07823800      0.02423000
H          -1.45975100      0.18511100     -1.59022700
