12
b3lypvdz=-194.23405469526 
C          -3.87727800      0.50864100     -0.48387000
O          -5.11966600     -0.10779700     -0.16397200
C          -2.66427000     -0.23306700      0.07934200
C          -2.59080400     -0.23372200      1.60890600
H          -3.85813600      1.56961300     -0.15148500
H          -3.83313100      0.51095000     -1.58564700
H          -5.25851000     -0.00883600      0.78912800
H          -1.74919500      0.22612300     -0.33768900
H          -2.69836000     -1.27312800     -0.29187900
H          -1.70513400     -0.78105500      1.96977100
H          -3.47194800     -0.72414400      2.05827700
H          -2.53416600      0.79352100      2.01121800
