8
b3lypvdz=-79.764263711691 
C          -2.63268900     -0.26531500      0.05313900
C          -1.38991100      0.41581600     -0.52964000
H          -3.55786100      0.19678900     -0.32975600
H          -2.65191800     -0.19042400      1.15417400
H          -2.66178500     -1.33655200     -0.21062600
H          -1.36081300      1.48705200     -0.26587200
H          -0.46474100     -0.04629200     -0.14674500
H          -1.37068200      0.34092700     -1.63067400
