11
b3lypvdz=-268.221349484288 
O          -1.35439100      1.82226900     -0.25519900
O           0.16643900     -1.32932700     -0.01604000
C          -2.61660200     -0.26781400      0.05295500
C          -1.39978500      0.43067400     -0.55369700
C          -0.08944400     -0.14838500     -0.03100100
H          -2.16400100      2.22529600     -0.60035500
H          -3.54612500      0.12494600     -0.39281900
H          -2.65453300     -0.09463900      1.14109500
H          -2.56965900     -1.35150400     -0.13583100
H          -1.38980400      0.25139300     -1.65213500
H           0.63360400      0.62669200      0.33522800
