15
b3lypvdz=-233.520464539336 
O          -1.24740200      1.78869200     -0.17673400
C          -2.67406500     -0.22939200     -0.03148100
C          -1.38980600      0.42628600     -0.56107400
C          -3.93224100      0.50418000     -0.51059500
C          -2.71279900     -1.71402100     -0.41291100
H          -1.88224000      2.30531800     -0.69323500
H          -2.63590000     -0.14564400      1.07129000
H          -0.51364400     -0.09202200     -0.13595800
H          -1.33492200      0.30189200     -1.66482500
H          -4.84100100      0.05311400     -0.07993100
H          -3.91827400      1.56346900     -0.20361700
H          -4.02930900      0.46225200     -1.61151300
H          -3.59274200     -2.21318400      0.02416400
H          -1.81755900     -2.25086700     -0.05634000
H          -2.76729600     -1.84327400     -1.50924100
