17
b3lypvdz=-346.79217362863 
O          -5.11733600     -0.10508400     -0.07257400
O           0.01861800     -0.98983800      0.89347700
C          -2.64796200     -0.31520700     -0.03285000
C          -1.38126200      0.40610600     -0.50392200
C          -3.88621300      0.51648300     -0.40654700
C          -2.73477300     -1.74866000     -0.57155600
C          -0.08000900     -0.11992100      0.05810900
H          -5.12698700     -0.23670800      0.88804300
H          -2.59964700     -0.36833700      1.07249500
H          -1.41137900      1.48362100     -0.23913000
H          -1.29541800      0.39085300     -1.60899800
H          -3.80752700      1.52172500      0.05724500
H          -3.92571400      0.66591700     -1.49969800
H          -3.70361400     -2.19599300     -0.30271700
H          -1.93298800     -2.37437500     -0.15527100
H          -2.65169300     -1.76564100     -1.67372000
H           0.83440500      0.38146000     -0.36078600
