18
b3lypvdz=-326.959796256161 
O           0.05614900     -1.27223000      0.60608000
N           0.93221100      0.79365000      0.22368900
C          -2.66581800     -0.31378800      0.02464100
C          -1.38294800      0.40643400     -0.41472000
C          -2.80565100     -1.74923600     -0.49480200
C          -0.08557400     -0.12538300      0.19931900
C           2.26640500      0.49024300      0.70705300
H           0.74072500      1.73081900     -0.10713000
H          -3.52104000      0.28887200     -0.33160400
H          -2.72183600     -0.30677300      1.12805100
H          -1.46581100      1.48371200     -0.18180000
H          -1.27657500      0.33486800     -1.51484100
H          -3.74764900     -2.20111800     -0.14089100
H          -1.97012000     -2.37203700     -0.14689800
H          -2.81872200     -1.77303700     -1.59968900
H           3.02634500      0.64131900     -0.07948300
H           2.53237500      1.11778600      1.57505700
H           2.26993500     -0.56299900      1.01827000
