13
b3lypvdz=-232.321626712368 
O           0.07564500     -1.02639800      0.83969400
C          -2.62145500     -0.32258500      0.03888900
C          -1.37616300      0.42061200     -0.44999400
C          -2.77264600     -1.73713500     -0.53612500
C          -0.05453100     -0.12738800      0.04067100
H          -3.51021200      0.27861100     -0.22086100
H          -2.58738300     -0.37829600      1.14050300
H          -1.39607400      1.48105500     -0.12563200
H          -1.32445100      0.47089700     -1.55568900
H          -3.66085000     -2.23689500     -0.11677000
H          -1.89929200     -2.36059000     -0.28941000
H          -2.88740800     -1.71737200     -1.63424300
H           0.84561900      0.39128400     -0.39173300
