15
b3lypvdz=-233.521180284671 
O          -5.12898900     -0.08429700     -0.04222600
C          -2.66008900     -0.27210900     -0.01930900
C          -1.38558300      0.41934900     -0.51354000
C          -3.90809700      0.50642100     -0.46200000
C          -2.71987300     -1.73665600     -0.46582800
H          -5.12481200     -0.10699600      0.92705200
H          -2.64937000     -0.24450200      1.09098700
H          -1.33407800      1.47003900     -0.18177300
H          -0.48627800     -0.09419200     -0.13727200
H          -1.33507500      0.41076100     -1.61724000
H          -3.82660000      1.55720200     -0.11297600
H          -3.96464800      0.53387500     -1.56472000
H          -3.67469100     -2.19629800     -0.16826900
H          -1.89618200     -2.32444100     -0.03018900
H          -2.64173600     -1.81345700     -1.56579900
