18
b3lypvdz=-326.960380103342 
O           0.07690300     -1.18662400      0.62330600
N           1.02898700      0.84152600      0.24281600
C          -2.56914200     -0.30226600      0.06484400
C          -1.35528000      0.58312200     -0.22999800
C          -2.96989100     -0.32204900      1.54378500
C          -0.03311400     -0.02317900      0.25391500
C           2.38524800      0.40581300      0.53853500
H           0.90065900      1.74884700     -0.18972500
H          -3.41751100      0.05082100     -0.54718900
H          -2.33234800     -1.32686100     -0.26552400
H          -1.48199200      1.58798200      0.21477700
H          -1.25878700      0.74318800     -1.32054100
H          -2.13575800     -0.67916300      2.16779500
H          -3.82293800     -0.99944600      1.71367600
H          -3.26521300      0.68205000      1.89721400
H           2.88852000     -0.04204300     -0.33897800
H           2.97916600      1.26341900      0.88897400
H           2.34549100     -0.35643600      1.32832000
