16
b3lypvdz=-308.704114963111 
O          -1.63610500      1.93987200     -0.45027100
O          -5.09742900     -0.42183100      0.36167000
C          -2.66274500     -0.17943500      0.01707400
C          -1.62523400      0.56251400     -0.82568200
C          -4.07885200      0.35220100     -0.25950700
C          -2.31619900     -0.13997000      1.50902000
H          -0.95773500      2.39621500     -0.96732000
H          -5.09825100     -0.20219600      1.30394700
H          -2.65686300     -1.23366400     -0.31961100
H          -0.62659100      0.10946600     -0.65617000
H          -1.86386700      0.43783100     -1.90267100
H          -4.13553500      1.42024000      0.02902600
H          -4.28415200      0.29147500     -1.34202100
H          -1.33928400     -0.61287900      1.70494500
H          -3.06348800     -0.68856600      2.10441800
H          -2.26496800      0.89962500      1.87025400
