10
b3lypvdz=-193.036789346653 
C           2.19181700      0.44619100      0.80101500
O           4.93253700     -0.25763000      1.01218700
C           3.05735000      0.19876800     -0.43167000
C           4.49559100     -0.13402500     -0.10909000
H           1.15873800      0.69196000      0.50870500
H           2.59174800      1.27991400      1.39983700
H           2.17094500     -0.43962000      1.45481300
H           3.06397400      1.07314600     -1.11162700
H           2.66267100     -0.63556500     -1.04554700
H           5.16543000     -0.26753800     -1.00192200
