14
b3lypvdz=-307.507207903861 
O          -1.40179000      1.87520200     -0.37086100
O           0.42070100     -1.13105200     -0.60721600
C          -2.60149500     -0.15372000      0.05887600
C          -1.39417400      0.47733400     -0.64766600
C          -3.93879000      0.42390400     -0.40936200
C          -0.10661900     -0.15554800     -0.12717000
H          -0.75615500      2.30081600     -0.95419400
H          -2.48600300      0.00057000      1.14773700
H          -2.56131600     -1.24183800     -0.12371000
H          -1.45708000      0.26134800     -1.73306700
H          -4.77414400     -0.03779400      0.13960600
H          -3.97088100      1.51134300     -0.24240000
H          -4.09622600      0.23773900     -1.48570200
H           0.31637300      0.37689600      0.76803000
