7
b3lypvdz=-95.792487535394 
C           2.19954800      0.44733800      0.77196700
N           0.81394300      0.79816000      0.44114700
H           2.88197500      0.28960300     -0.09145300
H           2.63835800      1.24120400      1.40014300
H           2.20919300     -0.47685000      1.37455100
H           0.41444900      0.07189200     -0.15770900
H           0.80673400      1.64605300     -0.13134600
