15
b3lypvdz=-287.678899507279 
O           0.23279900     -1.32503900      0.06652700
N           0.84604800      0.82131900      0.45748900
C          -2.61690800     -0.29647100      0.02626300
C          -1.36202500      0.41654600     -0.51463700
C          -2.79152700     -1.74613200     -0.44632600
C          -0.03871200     -0.13273700      0.02068800
H           1.77861100      0.50849600      0.70555400
H           0.69895700      1.80742600      0.28758300
H          -3.49628200      0.29698500     -0.28453700
H          -2.59862800     -0.26063700      1.13179000
H          -1.43037500      1.49646300     -0.29239400
H          -1.33286400      0.31580300     -1.61677400
H          -3.73598800     -2.16932900     -0.06295700
H          -1.95998900     -2.37831000     -0.10548500
H          -2.82131700     -1.80158500     -1.54988500
