13
b3lypvdz=-232.32190042447 
O          -0.00621300     -1.25224100      0.52864600
C          -2.62148700     -0.22171000     -0.00652500
C          -1.34930800      0.51483500     -0.42310200
C          -3.90520700      0.45467800     -0.49221400
C          -0.06642100     -0.19651800     -0.05850800
H          -2.63548300     -0.30675700      1.09349900
H          -2.57296900     -1.25676400     -0.38508400
H          -1.29636100      1.52297700      0.03501100
H          -1.32091200      0.70274200     -1.51526300
H          -4.79523600     -0.07952500     -0.12309600
H          -3.97371600      1.49715700     -0.13518100
H          -3.96111800      0.47480900     -1.59472100
H           0.87023000      0.33501800     -0.38046200
