17
b3lypvdz=-346.791915817809 
O          -1.35264200      1.80269500     -0.23260100
O           0.29575600     -1.28625500     -0.06446600
C          -2.61561000     -0.30112800      0.06056000
C          -1.37642800      0.40892100     -0.53790400
C          -2.62990200     -0.20705300      1.59120700
C          -2.76320900     -1.74485800     -0.43578900
C          -0.03979200     -0.12486900     -0.03159600
H          -2.14907100      2.20183200     -0.61168100
H          -3.48131200      0.27623700     -0.32477200
H          -1.37387200      0.24102900     -1.63741100
H          -1.83188900     -0.82460700      2.03576600
H          -3.58805300     -0.56912700      1.99850100
H          -2.48094800      0.83273900      1.92106200
H          -3.71552300     -2.17261400     -0.08169300
H          -1.94200300     -2.37751400     -0.06865400
H          -2.75669200     -1.79824200     -1.53818500
H           0.63309200      0.67581700      0.37365700
