13
b3lypvdz=-269.417998087857 
O          -1.39818700      1.85055700     -0.28414800
O          -5.08104900     -0.22398700      0.12086300
C          -2.62932400     -0.17753500     -0.03915300
C          -1.42129200      0.48324500     -0.68989300
C          -3.96351600      0.45916400     -0.43083400
H          -0.64821600      2.28054000     -0.71862000
H          -5.03571900     -0.12350500      1.08347700
H          -2.50654000     -0.12457700      1.05958400
H          -2.65503700     -1.24641800     -0.31702300
H          -0.49948500     -0.04632100     -0.37490500
H          -1.49024800      0.38900300     -1.79482300
H          -3.95466800      1.53176800     -0.15794800
H          -4.09721800      0.39876700     -1.52547700
