16
b3lypvdz=-308.704496551018 
O          -1.22279400      1.77343200     -0.19641900
O          -5.11911600     -0.06358600      0.00010500
C          -2.65279200     -0.24570700     -0.05835000
C          -1.38679100      0.42197300     -0.61379500
C          -3.91858100      0.49104900     -0.51608300
C          -2.69565800     -1.73189100     -0.42859600
H          -1.81756600      2.32159900     -0.72754200
H          -5.09523000      0.03796900      0.96404600
H          -2.60205500     -0.14813600      1.04514100
H          -0.50113400     -0.11709900     -0.23922600
H          -1.37394200      0.32952700     -1.72091700
H          -3.82986800      1.56385500     -0.24845600
H          -4.01784400      0.42657500     -1.61523500
H          -3.66111300     -2.16817300     -0.13168800
H          -1.89089500     -2.29847500      0.06550400
H          -2.58672200     -1.87341200     -1.51939000
