18
b3lypvdz=-326.96341637447 
O           0.08980400     -1.29624200      0.20453100
N           0.85518500      0.83813000      0.41599500
C          -2.63311900     -0.30923000      0.02173700
C          -1.41030900      0.48203000     -0.44124300
C          -0.09832000     -0.08962100      0.08953500
C           2.21964500      0.44216500      0.74381400
C           3.08348900      0.18306000     -0.49219700
H           0.67302700      1.80832700      0.18734400
H          -3.53697600      0.02808000     -0.50724700
H          -2.80398400     -0.18798800      1.10383700
H          -2.47721600     -1.37947200     -0.17992800
H          -1.50096300      1.55258600     -0.18916600
H          -1.33926900      0.41717300     -1.54334600
H           2.65960200      1.22481200      1.38227100
H           2.14405200     -0.47749100      1.34202000
H           4.09413000     -0.13905600     -0.19234500
H           3.18098000      1.08562900     -1.11800900
H           2.63104200     -0.61729100     -1.09790100
