12
b3lypvdz=-248.353195514055 
O           4.93312400     -0.29105500      1.02190800
N           0.79263300      0.79480000      0.47197900
C           2.18491700      0.45785100      0.77202700
C           3.08597300      0.20157100     -0.44493300
C           4.51575900     -0.15024700     -0.10548800
H           0.36684600      0.04571000     -0.07970600
H           0.75828200      1.62390900     -0.12720400
H           2.61961300      1.27118700      1.37729400
H           2.19607400     -0.43094300      1.42397600
H           3.10761900      1.08183000     -1.11863300
H           2.68372800     -0.62523500     -1.06612100
H           5.19963300     -0.28087900     -0.98829800
