16
b3lypvdz=-362.871199143655 
O          -1.32683100      1.84281500     -0.51253500
O           0.33505400     -1.29381500     -0.33422900
N           0.67138600      0.72491600      0.67581600
C          -2.55596300     -0.22431400     -0.03316500
C          -1.32403900      0.42128700     -0.69028200
C          -2.75652800     -1.70773700     -0.36014700
C          -0.01657500     -0.14228400     -0.11139300
H          -2.24826000      2.13897100     -0.54040900
H           1.57050200      0.44024300      1.04401800
H           0.36300800      1.68812300      0.72982700
H          -3.44335000      0.34595700     -0.37491500
H          -2.48877400     -0.07120600      1.05937600
H          -1.31127000      0.16932800     -1.76918700
H          -3.60530700     -2.11922600      0.20911700
H          -1.85630200     -2.28945900     -0.11619200
H          -2.96825300     -1.85159900     -1.43350000
