15
b3lypvdz=-287.680204435364 
O           0.04798900     -1.33773500     -0.13518900
N           0.90805400      0.68407900      0.43085600
C          -2.61517300     -0.14252900      0.05453000
C          -1.37057300      0.58645300     -0.46632100
C          -3.92647000      0.40611400     -0.50498100
C          -0.08346100     -0.12591500     -0.05266800
H           1.81167100      0.26501100      0.62022900
H           0.83854900      1.69216400      0.39435700
H          -2.62498000     -0.08360400      1.15847000
H          -2.50393300     -1.20924500     -0.20069600
H          -1.36785600      1.64249600     -0.14351300
H          -1.38669500      0.58587100     -1.57235200
H          -4.78813200     -0.14098700     -0.09078200
H          -4.06346200      1.47347000     -0.25811500
H          -3.96902700      0.31025700     -1.60412400
