10
b3lypvdz=-135.0821010999 
C           3.09190300      0.18265100     -0.44826200
C           2.19094400      0.45107500      0.76292900
N           0.79908100      0.80025400      0.46279700
H           4.11653100     -0.09057600     -0.13930900
H           3.15989300      1.07378000     -1.09783500
H           2.69191000     -0.64627300     -1.05981500
H           2.62176500      1.26824000      1.36965200
H           2.18153900     -0.43850900      1.41866000
H           0.38069400      0.05428400     -0.09993700
H           0.78294100      1.62687500     -0.14168000
