15
b3lypvdz=-287.68001257697 
O           0.16914500     -1.33817200     -0.02085500
N           0.89878300      0.77465200      0.37919700
C          -2.59129200     -0.27460900      0.08441800
C          -1.37345400      0.46817700     -0.48515800
C          -2.69016000     -0.22012300      1.61111500
C          -0.04388500     -0.13437600     -0.02657100
H           1.82870900      0.42501600      0.58328800
H           0.77318800      1.77035500      0.25385600
H          -3.50216500      0.16011600     -0.36488800
H          -2.54209600     -1.32553300     -0.24648200
H          -1.42464600      1.54388700     -0.23282100
H          -1.38994500      0.39133500     -1.58837600
H          -1.83025400     -0.72139100      2.08455200
H          -3.60271600     -0.72683500      1.96712300
H          -2.72201400      0.82120100      1.98010200
