15
b3lypvdz=-287.674795684719 
O           0.10727200     -1.30993300      0.12956800
N           0.85613800      0.82427700      0.38839900
C          -2.62533300     -0.30222900      0.02650900
C          -1.40693000      0.47649900     -0.47035800
C          -0.08886000     -0.10383200      0.03818900
C           2.20822900      0.43864100      0.74391200
H           0.67061400      1.79661400      0.17491600
H          -3.54201900      0.05342000     -0.46789900
H          -2.75720700     -0.18897500      1.11510000
H          -2.49545700     -1.37316900     -0.18966000
H          -1.48657800      1.54714400     -0.21441500
H          -1.36466000      0.41195600     -1.57361500
H           2.84583500      0.24855600     -0.13852000
H           2.67168400      1.22878400      1.35214500
H           2.16637300     -0.49285300      1.32543000
