13
b3lypvdz=-323.575070888629 
O          -1.32780700      1.85212700     -0.60202300
O           0.09960800     -1.34319900      0.10989200
N           0.88546700      0.80412600      0.29516100
C          -1.40490700      0.43963000     -0.43003400
C          -0.05788600     -0.13175800      0.01901300
C           2.21471200      0.46442500      0.76200200
H          -2.22608500      2.20195300     -0.67495400
H           0.59871800      1.77194900      0.19421100
H          -2.14833600      0.14972900      0.33584600
H          -1.67715800     -0.07915900     -1.36812500
H           2.98558200      0.97461500      0.16323100
H           2.36127900      0.73910000      1.82238300
H           2.33221400     -0.62353600      0.65879700
