6
b3lypvdz=-169.813876992247 
O           0.19946300     -1.34991600     -0.04966700
C          -0.03108200     -0.15879700     -0.00916800
N           0.84238400      0.79249200      0.42528400
H          -1.00025800      0.29257700     -0.34566600
H           1.75282200      0.50076700      0.76576200
H           0.59217000      1.77257600      0.45165500
