8
b3lypvdz=-228.928994428288 
O          -1.36118500      1.82675900     -0.26354500
O           0.22005800     -1.31382000     -0.06584600
C          -0.05991500     -0.13913900     -0.03465500
C          -1.38354200      0.43602000     -0.51644500
H          -2.17158900      2.21604600     -0.61969300
H           0.64430900      0.64256100      0.35476500
H          -2.19890600     -0.09448400      0.01583000
H          -1.48402900      0.18685700     -1.59381100
