14
b3lypvdz=-361.654267607514 
O           0.22878300     -1.32894700     -0.15205600
O           4.92227700     -0.22093800      1.03788900
N           0.82416700      0.79539900      0.43039000
C          -0.04959300     -0.15008800     -0.01125800
C           2.19952800      0.46092300      0.77926300
C           3.07627600      0.19695000     -0.44787400
C           4.50478900     -0.13374800     -0.09554900
H           0.51316600      1.75831500      0.47659300
H          -1.06009900      0.27356300     -0.23034400
H           2.61505300      1.28171200      1.38110000
H           2.19143100     -0.43706600      1.41499900
H           3.08145500      1.06126600     -1.13996000
H           2.66184200     -0.64870300     -1.02815100
H           5.18512700     -0.30173600     -0.97234400
