18
b3lypvdz=-326.964843358974 
O           0.23016300     -1.33616500      0.08071300
N           0.82642800      0.81213800      0.47758900
C          -2.63684000     -0.27277600     -0.01766300
C          -1.35393200      0.40254200     -0.55179400
C          -3.87630100      0.52753400     -0.44739300
C          -2.76224900     -1.74004600     -0.45323300
C          -0.04412300     -0.14534500      0.01984400
H           1.75033100      0.50029100      0.75723200
H           0.68600000      1.79704900      0.29603600
H          -2.58338500     -0.23879700      1.08862300
H          -1.41132600      1.48845800     -0.35537600
H          -1.30997400      0.27591900     -1.65140800
H          -4.79238900      0.08039400     -0.02708200
H          -3.83213700      1.57687200     -0.10706500
H          -3.98093400      0.53212000     -1.54804900
H          -3.70806300     -2.17012400     -0.07926500
H          -1.92497900     -2.34489100     -0.08275600
H          -2.76969000     -1.81997300     -1.55655300
