17
b3lypvdz=-346.79179611149 
O          -1.41801800      1.86491500     -0.23327500
O           0.16979600     -1.33521300     -0.40775000
C          -2.62646400     -0.20308900      0.08938300
C          -1.42395400      0.48632800     -0.58699600
C          -3.94684600      0.37724000     -0.43053200
C          -2.54531500     -0.11433800      1.61965700
C          -0.09944900     -0.17597200     -0.19647200
H          -0.87162900      2.34375100     -0.87225400
H          -2.55619700     -1.26441000     -0.20874400
H          -1.52724700      0.35131800     -1.68417600
H          -4.80388400     -0.13064800      0.03957000
H          -4.01488200      1.45241200     -0.19829900
H          -4.03954200      0.25796000     -1.52338700
H          -1.65377800     -0.62797900      2.01490600
H          -3.42539000     -0.58994000      2.08049800
H          -2.51100200      0.93580500      1.94944100
H           0.62360000      0.52326000      0.30582700
