5
b3lypvdz=-40.480464331415 
C          -2.64352000     -0.27125400      0.05855700
H          -1.73431500      0.19455800     -0.34933300
H          -3.52573100      0.27880000     -0.30025200
H          -2.61220800     -0.24170700      1.15834700
H          -2.70122500     -1.31699700     -0.27941800
