51
hf631gd=-1292.46883302 
     O     -2.48269700     -2.87308200      0.21607700
     H     -2.66259700     -2.51169100      1.07992200
     H     -1.60084700     -2.56781800      0.00523200
     O      4.05943800     -1.54220600      1.26933900
     H      4.49657400     -0.92722400      0.68463700
     H      3.53180600     -1.00662100      1.85747300
     O     -4.12311600     -1.47726500     -1.50783400
     H     -4.67514600     -2.05716000     -2.01493200
     H     -3.55801200     -2.04105300     -0.96536800
     O      2.92652200     -0.82551700     -2.55249000
     H      2.77342700     -1.66250900     -2.12214900
     H      2.06571400     -0.42234100     -2.65063900
     O     -2.95940400     -1.08300000      2.53895100
     H     -3.44930800     -1.29701400      3.32177100
     H     -3.56158500     -0.57388300      1.98012300
     O      2.38775900      0.37593400      2.78270200
     H      1.44155600      0.24763900      2.67143100
     H      2.52841000      0.54416900      3.70505200
     O     -0.32059800      0.00716400      2.09941900
     H     -1.13040000     -0.31780700      2.49180500
     H     -0.17957200     -0.55292900      1.33122300
     O     -3.38065200      2.47215400     -0.39013300
     H     -2.57668800      2.55891200      0.13886300
     H     -3.76182300      3.33841400     -0.44074400
     O     -4.69187100      0.19826400      0.80689100
     H     -4.37289900      1.03994300      0.48592100
     H     -4.73898300     -0.35403000      0.02976400
     O      2.52522700     -2.93741500     -0.54471200
     H      2.67812200     -3.87227100     -0.51261700
     H      3.08212800     -2.53886300      0.13581500
     O      0.04044900     -1.59040600     -0.18282200
     H      0.09898600     -0.93771200     -0.88588500
     H      0.81954500     -2.13986300     -0.26485200
     O      0.31191100      0.40144900     -2.15273700
     H      0.55547000      1.24006800     -1.76297600
     H     -0.59339600      0.50377100     -2.46204500
     O      4.74632900      0.34779100     -0.83361300
     H      5.56496300      0.46779900     -1.29615700
     H      4.11504000      0.00901800     -1.48157000
     O     -1.04999700      2.64266600      1.04818500
     H     -0.33200300      2.83187500      0.44800500
     H     -0.82136000      1.81354900      1.46519200
     O      3.31406600      2.29810600      0.73518400
     H      3.04187700      1.77398200      1.48478700
     H      3.90823000      1.74386700      0.23302600
     O      1.13645100      2.86171200     -0.83428200
     H      1.30598000      3.65831500     -1.31942700
     H      1.92022900      2.70158500     -0.29170400
     O     -2.45773900      0.71955400     -2.58490500
     H     -2.98285900     -0.05271300     -2.38926300
     H     -2.78720500      1.39335400     -1.99547300
