39
hf631gd=-988.346992625 
     O      0.34056100      2.06774600      0.60200200
     H      0.32212300      1.47349400      1.34918300
     H      1.23584200      2.41268400      0.55835500
     O      0.21439100      0.03316600      2.69136400
     H     -0.65102600     -0.34404700      2.47375200
     H      0.15568900      0.32937700      3.59028800
     O     -1.71495400     -2.87398400     -0.13236400
     H     -2.01288200     -3.77120400     -0.20088600
     H     -0.76305900     -2.89300000     -0.29666400
     O      0.99969400     -2.88196600     -0.59357700
     H      1.49330300     -2.58053000      0.16514200
     H      1.28338000     -2.32481100     -1.31594500
     O      3.75074200      0.08888700     -0.38143000
     H      3.44771700     -0.48099300      0.31989700
     H      3.25357300     -0.17822100     -1.15119100
     O      1.86058300     -0.80128700     -2.44452900
     H      2.05978800     -0.89906900     -3.36604900
     H      1.13626300     -0.16498900     -2.38567700
     O     -3.72915900      0.96388600      0.37626900
     H     -4.60565300      1.28315600      0.54416900
     H     -3.20731300      1.72813700      0.10601400
     O     -2.23012200     -0.96255500      1.99201300
     H     -2.78347400     -0.31614900      1.55763800
     H     -2.13841600     -1.68538300      1.37387000
     O     -2.08226300      3.01677100     -0.53064800
     H     -1.28472900      2.93846400     -0.00765600
     H     -1.80238600      2.78702900     -1.40960700
     O      3.07774400      2.67361500      0.46384800
     H      3.40672300      1.82161400      0.16317400
     H      3.47937100      3.32465800     -0.09454100
     O     -2.58291000     -0.63991000     -1.77997900
     H     -3.17457700     -0.19301400     -1.18163300
     H     -2.37611200     -1.47092900     -1.35958700
     O     -0.23846400      0.93676500     -2.00408500
     H     -0.04524600      1.20792600     -1.10746600
     H     -1.03303800      0.39833100     -1.96510100
     O      2.33773400     -1.55296800      1.64564900
     H      2.77030900     -2.00796400      2.35579900
     H      1.65804000     -1.00570300      2.04474500
