33
hf631gd=-836.288938542 
     O      0.21412900     -2.44988800     -1.55242300
     H      0.57092100     -1.61720600     -1.88890400
     H      0.30540700     -3.08006500     -2.25447400
     O      1.76069000     -2.25886700      0.90187200
     H      1.29489900     -2.54544600      0.11894800
     H      1.07561300     -2.02114900      1.52438500
     O     -2.18200500      2.22594200     -0.14110300
     H     -2.73457100      1.47456800     -0.38566000
     H     -2.77108400      2.96128200     -0.03686700
     O      2.01805000      2.28738800      0.83764800
     H      2.51935900      1.50045100      0.61259100
     H      2.63638400      2.91431600      1.18798000
     O     -3.75171800      0.02390300     -0.72717400
     H     -3.27933400     -0.75622700     -0.41641100
     H     -4.03993300     -0.18088600     -1.60598100
     O      1.46953200     -0.13590100     -2.35261300
     H      2.21281800     -0.07786000     -1.75998200
     H      1.01539000      0.70423900     -2.26283300
     O      0.35450800      2.38675600     -1.62006800
     H     -0.53219400      2.37263300     -1.26893500
     H      0.91416500      2.57548000     -0.87300400
     O     -2.18544300     -2.12832200      0.08248600
     H     -1.75863300     -1.94979000      0.91698400
     H     -1.47263200     -2.29471200     -0.53028600
     O     -0.54298500     -1.30654300      2.37747000
     H     -0.52896400     -0.34388500      2.30058100
     H     -0.77210200     -1.49683000      3.27733600
     O      3.25550700     -0.12662700      0.04515400
     H      4.16937500     -0.37648100      0.07694400
     H      2.75805600     -0.87481700      0.40497400
     O     -0.49035700      1.43861400      2.09793500
     H     -1.11552800      1.73048800      1.43701200
     H      0.35729400      1.76521700      1.80626100
