57
hf631gd=-1444.53078049 
     O     -0.18134000     -0.30487300     -2.31888400
     H     -0.09204100     -0.94896900     -1.61477400
     H     -1.02002000     -0.51652500     -2.73960200
     O      2.61060800     -1.85172200      2.67999200
     H      2.77280600     -2.15061200      3.56471200
     H      1.71194100     -1.51147700      2.66326600
     O     -4.44078000      0.62526200     -1.21481500
     H     -5.28234400      0.95103500     -1.50537400
     H     -3.94397800      1.40265500     -0.92161700
     O     -3.03555100      2.81504400     -0.35921100
     H     -2.16125600      2.82712700     -0.74030100
     H     -2.89738700      2.80856500      0.58910600
     O     -2.80720300     -1.06773300     -2.97031200
     H     -3.38332100     -0.45049400     -2.52419100
     H     -2.87517000     -1.87352200     -2.46607800
     O      4.29986100      0.03716000      1.20276600
     H      4.37427100     -0.42628900      0.36995600
     H      3.82112500     -0.55215700      1.78165100
     O     -4.14091900     -1.37081300      0.86207100
     H     -4.36283400     -0.69482400      0.22327800
     H     -3.73924600     -2.07239400      0.35465500
     O      2.57375700      0.20142000     -2.93079300
     H      1.64670900     -0.03437400     -2.94725500
     H      2.59819300      1.11776200     -2.66893400
     O     -0.28480200      2.25817800     -1.17357300
     H     -0.31446500      1.38937800     -1.58471500
     H      0.47472500      2.69393500     -1.55130900
     O     -0.07742100     -2.21743400     -0.19273700
     H      0.74417700     -2.71851000     -0.17366900
     H     -0.08958800     -1.72093400      0.62704300
     O      2.46271900     -3.33976000      0.12507000
     H      3.04789900     -2.82150800     -0.42340900
     H      2.64762400     -3.06508800      1.01866200
     O     -2.66071500     -0.41462600      2.97065500
     H     -3.17647700     -0.75240500      2.22514800
     H     -3.15065700     -0.64264400      3.74959800
     O      2.48038400      2.94201000     -1.78314700
     H      2.91424300      3.68537200     -2.18019900
     H      2.80818300      2.87698900     -0.88401800
     O      4.11314600     -1.39768500     -1.30368300
     H      3.55762200     -0.85728200     -1.88190600
     H      4.84446200     -1.68133200     -1.83628500
     O      0.07602500     -0.73378600      2.25305700
     H     -0.79166100     -0.74369600      2.65907000
     H      0.24033100      0.18553800      2.02314100
     O      0.45699300      1.95181100      1.52990700
     H      0.15676900      2.05029800      0.62261600
     H      1.35941300      2.26298100      1.52993400
     O      3.25619800      2.55083400      0.94014700
     H      3.82344200      3.12496800      1.43805800
     H      3.63080900      1.66235700      1.03089500
     O     -2.61875500     -3.15727800     -0.87442100
     H     -2.65757600     -4.10147700     -0.94652800
     H     -1.71541200     -2.93600800     -0.62956400
     O     -2.29219800      2.48903400      2.40027200
     H     -1.34133000      2.51836600      2.35245500
     H     -2.50002400      1.59486400      2.65761100
