36
hf631gd=-912.319886405 
     O     -1.53537200      0.10496800      2.61973800
     H     -0.63732700      0.46640600      2.56800400
     H     -1.74232100      0.05148800      3.54346300
     O     -3.09069000      1.26723800      0.56862700
     H     -3.84956400      1.72209100      0.90827600
     H     -2.62073200      0.90880400      1.32553000
     O      1.29821300      2.72339700     -0.01874600
     H      1.42791200      3.66197000      0.01543500
     H      0.45332500      2.58703900     -0.47149400
     O      1.48425800     -1.21206200     -2.22835900
     H      2.11501400     -0.56723900     -1.91791300
     H      1.40641200     -1.85062500     -1.52120800
     O      0.98617300      1.12466400      2.46186200
     H      1.09335300      1.75015400      1.75042400
     H      1.64694600      0.44711500      2.30050200
     O     -0.94620300     -0.08495600     -2.85898000
     H     -0.09653700     -0.49376200     -2.64688400
     H     -1.04699600     -0.16079600     -3.79848200
     O      2.84778100     -0.80744600      1.53828300
     H      2.36256700     -1.55517200      1.19629800
     H      3.19205700     -0.36399600      0.76911500
     O     -2.95545700     -1.22377200     -1.04158100
     H     -3.22669000     -0.41912500     -0.61069400
     H     -2.35358600     -0.94635200     -1.72793200
     O     -1.37514300     -2.39558200      1.02315600
     H     -1.43847500     -1.67630900      1.64557900
     H     -1.96104500     -2.15489900      0.30310700
     O      1.19915900     -2.79946800      0.17555900
     H      1.36126100     -3.73148900      0.23626800
     H      0.28984700     -2.66688000      0.47874400
     O      3.18013600      0.80233200     -0.93023400
     H      2.59697000      1.51406400     -0.65831800
     H      3.95211500      1.20746900     -1.30172800
     O     -1.09787400      2.33473700     -1.28235500
     H     -1.80599500      2.10416200     -0.68500800
     H     -1.06073100      1.62235900     -1.91879000
