63
hf631gd=-1596.59050796 
     O      1.20980400      1.97264200      1.71114000
     H      0.58629800      2.68630600      1.83596900
     H      0.75740700      1.34656100      1.14074500
     O     -2.67947700      1.56083400      2.58060300
     H     -2.95524500      1.11422400      1.78172500
     H     -2.22765400      0.89474700      3.09484000
     O     -1.13648200      3.63462800     -1.22096400
     H     -1.13430500      3.69617200     -0.26817100
     H     -0.22344600      3.57230200     -1.49251400
     O      2.84995800     -1.43063300     -2.37655000
     H      2.32375100     -2.21903700     -2.26085800
     H      2.22716700     -0.75308700     -2.64210000
     O      0.80064000      0.52843400     -2.61148200
     H      0.48236900      0.39020200     -1.71739100
     H      1.06899600      1.44467700     -2.64736200
     O     -1.11363000      3.64806500      1.72429000
     H     -1.34212400      4.43964800      2.19293500
     H     -1.69837100      2.95390800      2.05865500
     O      1.45279400     -0.03472100      3.72665900
     H      2.06215200     -0.62563900      3.29347700
     H      1.46663000      0.76523500      3.20191600
     O     -2.94881300      0.21573800      0.06489400
     H     -3.27428300     -0.67491800     -0.06047500
     H     -3.14603900      0.71552200     -0.72723900
     O     -1.72088100     -0.35610000     -3.71335900
     H     -2.26447600      0.33740400     -3.35117800
     H     -0.82534500     -0.05592700     -3.57391300
     O      4.26342700     -0.41237600     -0.28041100
     H      5.17167700     -0.45113500     -0.55094600
     H      3.75552300     -0.79791600     -1.01102200
     O      1.63895300      3.23599700     -2.10447100
     H      2.05361700      3.87202900     -2.67174500
     H      2.29054400      3.00161600     -1.43080700
     O      3.36186400      2.43125400     -0.10884400
     H      3.70885900      1.54739600     -0.20007400
     H      2.76156600      2.38846600      0.63514400
     O      3.25958200     -1.71240600      2.02447100
     H      3.94687000     -2.23407900      2.41693500
     H      3.66547300     -1.21910400      1.30667400
     O      0.77667400     -2.56488800      0.84575900
     H      0.93169300     -3.03071100      0.02354200
     H      1.62325500     -2.43930900      1.27016200
     O     -0.09642000      0.05590100      0.06608900
     H      0.14753300     -0.83041600      0.33861100
     H     -1.05436500      0.10141800      0.09997000
     O     -3.35301900     -2.59080800     -0.05000500
     H     -2.83431100     -2.75991200      0.74799800
     H     -4.13586000     -3.12048600      0.02069200
     O     -3.01342700      1.87643200     -2.23510200
     H     -2.33033400      2.49013600     -1.93609700
     H     -3.72026000      2.41301900     -2.56804300
     O      0.95422100     -3.58342600     -1.79529400
     H      0.06123700     -3.31627200     -2.06302800
     H      1.05656400     -4.47683400     -2.09549800
     O     -1.74762000     -2.93353000      2.15863600
     H     -1.72025900     -2.20617800      2.77694300
     H     -0.86201500     -2.98583200      1.80384900
     O     -1.60636600     -2.88716200     -2.42604600
     H     -1.72561100     -2.07625600     -2.92554100
     H     -2.20824000     -2.83817100     -1.68804200
     O     -1.24625400     -0.63348000      3.91506200
     H     -1.41412700     -0.74654200      4.84143500
     H     -0.29675100     -0.47638000      3.83922600
