48
hf631gd=-1216.43298879 
     O     -0.79331500     -3.01789300     -1.29320400
     H     -0.29194000     -2.47492800     -1.89859100
     H     -0.28120900     -3.05993100     -0.48909600
     O     -3.30828800     -1.96077600     -0.84812300
     H     -3.93602800     -2.61090100     -1.13337300
     H     -2.43589900     -2.34045000     -1.00901100
     O     -3.23576000      0.79540800     -1.84283400
     H     -3.34404400     -0.12673200     -1.62338000
     H     -3.34778300      1.26169900     -1.01809700
     O      3.20655100     -0.74460100     -1.85641500
     H      3.29491900      0.17252200     -1.60815100
     H      3.30835700     -1.23759400     -1.04574000
     O      0.68672000      3.04928300     -1.25655000
     H      0.56753400      3.88759500     -1.68413700
     H      0.20461200      2.40829200     -1.80652600
     O      3.25061700      1.98873700     -0.79225400
     H      2.39275300      2.39292100     -0.95298900
     H      3.90262600      2.62087900     -1.06405400
     O     -0.65084600      1.32244000     -2.84367000
     H     -0.24747900      0.46493700     -2.95513200
     H     -1.55985800      1.16095200     -2.57648600
     O      0.75343100      1.25249200      3.02569300
     H      0.92085400      1.56171000      3.90620300
     H      1.61856700      1.08097000      2.63435900
     O     -3.23529600     -0.79451900      1.84264700
     H     -3.34518000      0.12758800      1.62388100
     H     -3.34732300     -1.26058900      1.01776400
     O      3.20674300      0.74434900      1.85550900
     H      3.29558800     -0.17272700      1.60725000
     H      3.30858900      1.23740800      1.04487300
     O     -3.30929800      1.96132200      0.84829600
     H     -3.93708100      2.61275600      1.13042000
     H     -2.43687400      2.34067600      1.00969000
     O      0.75242000     -1.25355100     -3.02523700
     H      0.91973400     -1.56280100     -3.90575800
     H      1.61764600     -1.08166100     -2.63425700
     O     -0.65104100     -1.32258900      2.84395300
     H     -1.55988000     -1.16075200      2.57627200
     H     -0.24730100     -0.46524200      2.95527400
     O     -0.79383300      3.01728400      1.29394000
     H     -0.29256900      2.47480300      1.89978800
     H     -0.28167700      3.05851900      0.48981700
     O      0.68658300     -3.04918300      1.25688500
     H      0.56772300     -3.88728100      1.68499600
     H      0.20437000     -2.40805600      1.80667700
     O      3.25069500     -1.98883800      0.79206100
     H      2.39287300     -2.39272000      0.95371300
     H      3.90279600     -2.62122400      1.06307000
