13
alpha=55.94 b3lypvdz=-195.174402111347 
     C      0.79794800      1.47798500     -0.14169000
     C      1.61285100     -1.43344300      0.22972700
     C      0.39212000     -0.91409900      0.42874000
     C     -0.02964400      0.49818500      0.26183600
     C     -1.48155400      0.77723200      0.57479000
     H      0.44090200      2.50422400     -0.25710400
     H      1.80039200     -2.49808400      0.38783400
     H     -0.40282000     -1.59586400      0.75492700
     H     -1.73885200      1.83318600      0.40547300
     H     -1.71685500      0.52586100      1.62496200
     H      1.84897000      1.29295700     -0.37762400
     H      2.46384600     -0.82664800     -0.09129000
     H     -2.14600400      0.15750800     -0.05227900
