12
alpha=52.42 b3lypvdz=-211.222485841648 
     N      2.72574600     -0.54390900     -0.20521900
     C      1.71683800     -1.24351800      0.15216700
     C      0.31764900     -0.83345100      0.43136900
     C     -0.18365400      0.40782200      0.31640700
     C     -1.60354500      0.79816200      0.60706600
     H      1.90624400     -2.32316600      0.28419500
     H     -0.34627900     -1.64085600      0.76232500
     H     -2.09313600      1.21153200     -0.29389500
     H     -1.64797600      1.59307700      1.37367500
     H      2.45892800      0.45055800     -0.29857500
     H      0.47495700      1.21998100     -0.02190200
     H     -2.19847300     -0.05753000      0.96308800
