9
alpha=40.16 b3lypvdz=-171.923810876813 
     C      2.25913900      0.89173800     -0.45506300
     N      2.49263000     -0.19785900      0.15938300
     C      1.51261300     -1.20477500      0.19613900
     C      0.24805100     -1.04423500      0.61820700
     H      3.01553500      1.68808000     -0.42930500
     H      1.89676200     -2.19762300     -0.06755800
     H     -0.43134100     -1.89591800      0.69376600
     H      1.32902200      1.07592100     -1.02692300
     H     -0.11191100     -0.06742800      0.95455300
