6
alpha=21.68 b3lypvdz=-78.533110119791 
     C      0.87717300      1.28964200     -0.13102500
     C      2.12800600      0.87986200     -0.35227900
     H      0.58581500      2.33545400     -0.27252500
     H      2.90739300      1.57560400     -0.67853900
     H      0.09778600      0.59389900      0.19523500
     H      2.41932600     -0.16596100     -0.21076700
