9
alpha=38.46 b3lypvdz=-171.930321040142 
     N      2.68204300     -0.50151400     -0.19285200
     C      1.70643000     -1.23913300      0.17318500
     C      0.28962100     -0.86162300      0.43195800
     C     -0.22193900      0.37080900      0.30682300
     H      1.93155900     -2.30820800      0.32532200
     H     -0.36119200     -1.68266300      0.75262100
     H      2.37008600      0.47720000     -0.30699300
     H      0.38137400      1.22873700     -0.00656900
     H     -1.27588100      0.56619600      0.52160500
