14
alpha=66.23 b3lypvdz=-287.43489221999 
     C      0.86162200      1.30353300     -0.11499500
     C      2.16841500      0.86748900     -0.35132400
     N      2.57411500     -0.40223100     -0.21051400
     C      1.64220300     -1.28157900      0.18353100
     C      0.31042200     -0.94742300      0.44740900
     C     -0.11054100      0.38228700      0.29938900
     C     -1.53078400      0.80723600      0.58505900
     H      0.60310000      2.35597400     -0.26120600
     H      2.93422500      1.57937000     -0.67971900
     H      1.98180900     -2.31823000      0.29391500
     H     -0.39364400     -1.72227300      0.76339600
     H     -1.82859900      1.65799100     -0.04639600
     H     -1.64122100      1.12556200      1.63742900
     H     -2.24112300     -0.01610700      0.41112500
