7
alpha=25.19 b3lypvdz=-153.749800779737 
     O     -2.52131200     -1.02475300     -0.64155400
     C     -1.52598300      0.79691200      0.58038700
     C     -2.65053400      0.02901200     -0.06490200
     H     -1.44950100      1.79906600      0.12307500
     H     -1.74778800      0.95317600      1.65153400
     H     -3.66149700      0.51601500      0.02183500
     H     -0.57688600      0.25437200      0.46332300
