11
alpha=44.92 b3lypvdz=-231.090757610524 
     C      0.30949200     -0.93166500      0.44187900
     C     -0.10608400      0.33147500      0.31377800
     C     -1.51378600      0.81747200      0.56269900
     C     -2.64627300      0.01333200     -0.05498900
     O     -2.54463200     -1.06016000     -0.59412500
     H     -0.36903700     -1.73885200      0.72534100
     H     -1.64120700      1.86089900      0.22008700
     H     -1.74008800      0.85458900      1.64909500
     H     -3.64891200      0.51477300      0.04401000
     H      1.35043900     -1.20087200      0.24363700
     H      0.61398700      1.09570900      0.00058500
