10
alpha=44.37 b3lypvdz=-155.885137223462 
     C      0.75147700      1.47055400     -0.14769900
     C      1.65483700     -1.46731600      0.23459300
     C      0.42390100     -0.96414400      0.42305300
     C     -0.00302700      0.43372700      0.25023800
     H      0.31921800      2.46965000     -0.24226400
     H      1.85424600     -2.52887900      0.39931600
     H     -0.36596300     -1.65199100      0.74534400
     H      1.81095100      1.36439600     -0.39969600
     H      2.50061100     -0.85003200     -0.08031700
     H     -1.05705200      0.62803500      0.47963400
