15
alpha=67.9 b3lypvdz=-308.440414428516 
     C      0.91982800      1.23226900     -0.09213400
     C      2.21756400      1.03772400     -0.37013800
     C      0.19359000     -1.08390800      0.46494300
     C     -0.08222100      0.22424400      0.32327600
     C     -1.47900200      0.75465900      0.59158900
     C     -2.63906900      0.07013700     -0.11271800
     O     -2.59415900     -0.97168600     -0.71779600
     H      0.53750100      2.25635000     -0.18280800
     H      2.85103700      1.87469300     -0.67164300
     H     -0.57475600     -1.80073700      0.75453000
     H     -1.55037300      1.82839600      0.33886800
     H     -1.72271000      0.70523600      1.67280300
     H     -3.60812500      0.63187500     -0.00973600
     H      2.69524800      0.05568500     -0.31272300
     H      1.19134800     -1.48573600      0.27488700
