15
alpha=67.66 b3lypvdz=-308.444494586949 
     C      0.70890000      1.36364700     -0.45922000
     C      1.63796100     -1.35302600      0.59211600
     C      0.39155900     -0.97925600      0.27121200
     C     -0.05841400      0.42118900      0.11401900
     C     -1.43595500      0.76608500      0.63780900
     C     -2.61598900      0.09428600     -0.03959400
     O     -2.55656000     -0.78585400     -0.86531800
     H      0.36991500      2.39971400     -0.54431400
     H      1.90770900     -2.40898700      0.67517200
     H     -0.37590700     -1.74562600      0.11898400
     H     -1.61480600      1.85531600      0.58104800
     H     -1.52865200      0.50669400      1.71342400
     H     -3.60847900      0.49016200      0.31098700
     H      1.69055700      1.12239100     -0.87228200
     H      2.42526200     -0.62033400      0.79035800
