14
alpha=63.28 b3lypvdz=-324.490100356627 
     N      2.76931700     -0.57135500      0.30913800
     C      1.72409100     -1.22028200     -0.04175000
     C      0.29387800     -0.85945800      0.10823200
     C     -0.15232000      0.40325500      0.21578100
     C     -1.57257900      0.88065500      0.33654000
     C     -2.72307800     -0.10267300      0.35392100
     O     -2.64951800     -1.30977600      0.33568000
     H      1.89969700     -2.19718600     -0.52475000
     H     -0.42426500     -1.68116400      0.08605700
     H     -1.79649900      1.60954400     -0.46947100
     H     -1.68738000      1.49444600      1.25539600
     H     -3.72503200      0.40374800      0.38937900
     H      2.49888200      0.30897400      0.77835800
     H      0.57960500      1.22237300      0.18988900
