11
alpha=45.57 b3lypvdz=-231.094362925912 
     C      0.83839600      1.26008800     -0.10920600
     C     -0.12914600      0.42205000      0.26973900
     C     -1.53400600      0.84072100      0.60035000
     C     -2.61600700      0.02670000     -0.08299800
     O     -2.42342300     -0.97365100     -0.73199100
     H      0.66062600      2.33631600     -0.21529200
     H     -1.70630700      1.90926000      0.37386900
     H     -1.73115300      0.73217300      1.68920900
     H     -3.65704000      0.42131300      0.07492500
     H      1.84473100      0.89624100     -0.33297500
     H      0.08443000     -0.64921000      0.35057000
