17
b3lypvdz=-272.537262934081 
C           3.34423100      0.14063400     -0.07058400
C           2.21320800     -0.58228300     -0.19095200
C           0.87945100     -0.03205400     -0.01473500
C          -0.31062100     -0.68889400     -0.11305100
C          -0.43559700     -2.16077600     -0.41573800
C          -1.54631500      0.07419800      0.08255500
C          -2.80574300     -0.39405400     -0.00416600
H           4.32467200     -0.31802500     -0.22258300
H           3.32479100      1.20618100      0.18192700
H           2.30482700     -1.64216700     -0.45074800
H           0.85206600      1.03850900      0.22496800
H          -1.02349100     -2.66849800      0.36792400
H          -0.96159300     -2.32389500     -1.37355200
H           0.53618900     -2.66799100     -0.47656900
H          -1.41194700      1.13657400      0.32188900
H          -3.65647200      0.27300400      0.15709500
H          -3.03725500     -1.43586100     -0.24067900
