15
b3lypvdz=-196.390803260111 
C           4.51536800     -0.85448600      0.28798600
C           3.31594100     -0.01028700     -0.12084100
C           4.42355200     -1.28040700      1.76631700
C           4.70848400     -2.07458500     -0.63016900
C           2.05821500     -0.44640700     -0.25187400
H           5.41211500     -0.21811700      0.18186700
H           3.51692600      1.05151400     -0.31286200
H           4.29517600     -0.40831200      2.42829600
H           3.56728300     -1.95583400      1.93242800
H           5.33730000     -1.81500300      2.08054600
H           5.62301300     -2.63033500     -0.35873400
H           3.85984200     -2.77565300     -0.55190900
H           4.79614800     -1.76783400     -1.68551600
H           1.25297800      0.23662700     -0.53496600
H           1.78246000     -1.49198200     -0.07707100
