13
b3lypvdz=-195.179967829427 
C          -1.58114900      0.22340000     -0.19775100
C          -2.78675500     -0.37259200     -0.22761100
C          -4.01552300      0.24903100      0.25285400
C          -5.24992300     -0.29634700      0.25129400
C          -5.65724500     -1.66165300     -0.22867100
H          -0.69033400     -0.28633000     -0.57366600
H          -1.44682600      1.23350600      0.20289600
H          -2.85499800     -1.38472400     -0.63966900
H          -3.90809600      1.26323300      0.65608400
H          -6.06757100      0.31565100      0.65265700
H          -4.82044600     -2.24501800     -0.64136700
H          -6.43222500     -1.58111300     -1.01254100
H          -6.10390900     -2.24324500      0.59899200
