19
b3lypvdz=-273.779116180243 
C           4.57322800     -0.77187700      0.29021300
C           5.97431100     -0.14691300      0.21899300
C           5.94585500      1.32424300      0.64882500
C           3.50060700      0.15033200     -0.23868600
C           5.00065000      2.14496100     -0.23854100
C           3.67362200      1.45778400     -0.48972000
C           2.57467900      2.32744000     -1.04175600
H           4.33038500     -1.05684800      1.33386200
H           4.55595800     -1.71869300     -0.27903400
H           6.35181800     -0.21261100     -0.81853700
H           6.67696600     -0.72031100      0.84607200
H           6.95985800      1.75775100      0.61942200
H           5.60188200      1.39045200      1.69816600
H           2.51684300     -0.29810400     -0.42621800
H           5.48328400      2.36170600     -1.21327700
H           4.81531300      3.13449800      0.21934600
H           2.33491500      3.15593600     -0.35083700
H           1.65292700      1.75505800     -1.22743200
H           2.88469900      2.79939500     -1.99346300
