13
b3lypvdz=-195.173956927272 
C           3.36056200      0.17411300     -0.11825900
C           3.61998800      1.44967600     -0.46681100
C           2.09238900     -0.56643400     -0.21897900
C           2.68350600      2.44910300     -1.08225000
C           0.85168400     -0.10264200      0.00800200
H           4.20613500     -0.41980400      0.25046900
H           4.64392900      1.80736800     -0.30098500
H           2.20080000     -1.62879200     -0.47584100
H           2.35155800      3.19766600     -0.33861700
H           1.78441500      1.97560600     -1.50332700
H           3.19545700      3.01126100     -1.88291700
H          -0.01740700     -0.75833400     -0.09345000
H           0.66438500      0.92451300      0.33046500
