15
b3lypvdz=-196.391223709545 
C           4.60321100     -0.86119500      0.24661300
C           5.89805200     -0.03678300      0.15160900
C           3.39444000     -0.00869900     -0.11247100
C           4.70251100     -2.13451200     -0.60965800
C           2.13174100     -0.43850300     -0.21149400
H           4.48584400     -1.17578400      1.30276300
H           5.85071100      0.86142600      0.78997100
H           6.07798200      0.29889600     -0.88532300
H           6.77060800     -0.63046000      0.47112700
H           3.58884100      1.05729500     -0.29333000
H           5.58019500     -2.73590900     -0.31467900
H           3.81210900     -2.77468800     -0.49874100
H           4.80535500     -1.87882000     -1.67888300
H           1.32026600      0.25151300     -0.45857000
H           1.85713300     -1.48487800     -0.04003400
