19
b3lypvdz=-273.745692289862 
C           4.47473000     -0.82311600      0.28529700
C           3.34450200      0.08167200     -0.18583600
C           3.61243600      1.35172300     -0.55995800
C           4.78739900     -1.99847600     -0.65432100
C           2.00378700     -0.54196600     -0.23648000
C           2.67807600      2.38250500     -1.12471200
C           0.83647800     -0.00245100      0.14689600
H           5.38104800     -0.20689600      0.40633600
H           4.22983300     -1.22865300      1.28503900
H           4.65677100      1.67601900     -0.45958200
H           5.65781300     -2.56543600     -0.28415300
H           3.94739500     -2.70963300     -0.72743700
H           5.01970900     -1.64133700     -1.67166900
H           1.98567400     -1.58097700     -0.59006700
H           2.39228600      3.13390700     -0.36469800
H           1.74864400      1.93887300     -1.51114300
H           3.17224500      2.94174100     -1.93803700
H          -0.09245000     -0.57515900      0.07567800
H           0.76732400      1.00526000      0.56354900
