13
b3lypvdz=-195.182466558808 
C          -2.92432000     -0.45368500     -0.03659400
C          -3.98015100      0.34541900      0.19252700
C          -5.37600800     -0.06658600      0.09446800
C          -6.42098900      0.74746100      0.33328500
C          -7.86709400      0.36037200      0.24232100
H          -1.90149600     -0.07931300      0.05418200
H          -3.05025000     -1.50194900     -0.32659800
H          -3.80138800      1.38911500      0.48048100
H          -5.56291000     -1.10863500     -0.19787800
H          -6.21697600      1.78616900      0.62658700
H          -8.40498300      0.98721200     -0.49121800
H          -8.38160100      0.51077300      1.20977000
H          -7.99093200     -0.69385300     -0.05373300
