15
b3lypvdz=-196.394365557685 
C           4.63795400     -0.78662100      0.24805300
C           6.01724000     -0.12054700      0.23054500
C           3.49943700      0.14434100     -0.10243600
C           3.58265300      1.42601300     -0.47181200
C           4.60353000     -2.02789200     -0.66342400
H           4.44508400     -1.14440000      1.28088500
H           6.06675000      0.74132100      0.91494000
H           6.27389100      0.23700100     -0.78168300
H           6.79363600     -0.83925200      0.53970400
H           2.50274400     -0.31623600     -0.04889800
H           4.53724400      1.95326700     -0.55164500
H           2.68317300      1.99927200     -0.71226200
H           5.36120700     -2.76714100     -0.35440600
H           3.61917000     -2.52482200     -0.63440200
H           4.80828700     -1.74220200     -1.71056000
