17
b3lypvdz=-272.537246695451 
C           2.10569700     -0.50358400     -0.18332900
C           0.87873400      0.01823200      0.00514500
C          -0.40278200     -0.68560200     -0.09650000
C          -0.37177400     -2.16267700     -0.39675700
C          -1.54874100      0.03015000      0.07999700
C          -2.91845600     -0.44879600      0.00120300
C          -3.99487100      0.34053000      0.18506300
H           2.99488500      0.12443700     -0.08453500
H           2.27185900     -1.55147200     -0.44681400
H           0.81133800      1.08204600      0.26404300
H          -1.36536600     -2.62855700     -0.35708700
H           0.04695200     -2.35155600     -1.40170400
H           0.26978000     -2.69266200      0.32721600
H          -1.45005900      1.09941000      0.30695900
H          -3.08724000     -1.50541200     -0.23314800
H          -5.00828400     -0.06270600      0.11074800
H          -3.89647000      1.40641800      0.41770200
