16
b3lypvdz=-234.465616127066 
C           4.64870300     -0.87735400      0.37983300
C           5.87380300     -0.01206600      0.06467500
C           3.33933100     -0.13591400      0.27774300
C           2.14102200     -0.69687500      0.02937600
C           0.88647900      0.04158200     -0.02720700
C          -0.32588800     -0.50864100     -0.21328200
H           4.74855500     -1.27805600      1.40822700
H           4.62904200     -1.76160300     -0.28092800
H           5.94173400      0.85068400      0.74882300
H           5.83396400      0.38618300     -0.96339200
H           6.80416300     -0.59374000      0.16824700
H           3.37804500      0.94927100      0.45032000
H           2.08312900     -1.78005900     -0.14570200
H           0.96209000      1.12876900      0.10599500
H          -0.44965700     -1.58851600     -0.34494400
H          -1.23021700      0.10313400     -0.24108500
