13
b3lypvdz=-195.180387935443 
C          -2.88101300     -0.40909000     -0.02321500
C          -3.99692000      0.31101900      0.18255400
C          -5.37982700     -0.16193400      0.03673100
C          -5.62044700     -1.59338600     -0.37852100
C          -6.40139300      0.68232400      0.28198200
H          -1.89481200      0.04028200      0.12186000
H          -2.90523900     -1.45400500     -0.34463500
H          -3.88706700      1.35489700      0.50049800
H          -5.17802800     -1.80239600     -1.36875200
H          -6.69675100     -1.81700400     -0.43175000
H          -5.16273400     -2.29743800      0.33774700
H          -7.44332000      0.36240900      0.18642800
H          -6.22614800      1.71822400      0.58907200
