16
b3lypvdz=-234.488821341613 
C           4.57686800     -0.78766000      0.30355400
C           5.96490500     -0.13564600      0.19486600
C           5.93290500      1.33231100      0.64206400
C           3.47512600      0.12384000     -0.18072100
C           4.95107700      2.15533800     -0.20572200
C           3.64366000      1.43066700     -0.42180400
H           4.36866800     -1.08993800      1.34953700
H           4.55776400     -1.72707100     -0.27767200
H           6.30864100     -0.18475800     -0.85518500
H           6.69633600     -0.70578200      0.79117300
H           6.94212000      1.77479700      0.58682700
H           5.62092700      1.38195400      1.70240500
H           2.48942700     -0.32943600     -0.33991700
H           5.40687400      2.39738200     -1.18702900
H           4.75764600      3.13220500      0.27380500
H           2.79935600      2.02219700     -0.79358200
