15
b3lypvdz=-196.393245299133 
C           4.48771200     -0.74348700      0.67326200
C           5.81560000     -0.14049700      0.16418600
C           6.02443300      1.33428600      0.52340400
C           3.25111000     -0.01062900      0.22314900
C           2.34863800     -0.47539800     -0.64684200
H           4.50987900     -0.75163300      1.78067600
H           4.42669800     -1.79611600      0.34535800
H           5.86708900     -0.26289700     -0.93307200
H           6.64309000     -0.74175000      0.58199700
H           5.26244300      1.97798200      0.05472300
H           7.00752000      1.69163400      0.17528200
H           5.97459600      1.49735300      1.61461500
H           3.09296400      0.98673700      0.65364200
H           1.47406100      0.11469900     -0.93376700
H           2.44906600     -1.46748500     -1.10051300
