13
b3lypvdz=-195.175208698974 
C           4.57322400     -0.78381100      0.28775500
C           3.43432300      0.11485600     -0.13826900
C           3.62734700      1.41008400     -0.44021400
C           2.10677200     -0.53370300     -0.23516100
C           0.92157600      0.03141000      0.03654600
H           5.52732600     -0.23712600      0.31933200
H           4.38706600     -1.21996200      1.28575900
H           4.68738500     -1.63340400     -0.40847000
H           4.61473700      1.87176200     -0.34899700
H           2.81169100      2.04296900     -0.79795800
H           2.12144300     -1.58803200     -0.54141600
H          -0.00904700     -0.52949300     -0.08404900
H           0.84295800      1.06154900      0.39644100
