17
b3lypvdz=-309.651082048405 
O          -8.64301400      1.58446300     -0.05602400
C          -2.89059400     -0.40364900     -0.03605100
C          -4.01295600      0.30431500      0.17782400
C          -5.39532800     -0.17647000      0.03701800
C          -5.60050200     -1.61166300     -0.38467600
C          -6.41046900      0.67470600      0.31223300
C          -7.89222200      0.41152500      0.25386100
H          -8.33210700      1.89982100     -0.91843400
H          -1.90875100      0.05602700      0.10136100
H          -2.90323800     -1.44906700     -0.35405500
H          -3.91173200      1.34805200      0.49756200
H          -5.15008600     -1.80593500     -1.37392600
H          -6.66158500     -1.88968900     -0.42956500
H          -5.10989200     -2.29748600      0.32640700
H          -6.16373200      1.68867100      0.65338800
H          -8.26241500      0.09745200      1.24705200
H          -8.13227600     -0.40827400     -0.44967500
