19
b3lypvdz=-273.751491143156 
C           4.61294500     -0.82803600      0.73863400
C           5.73689400     -0.07399200     -0.00781300
C           5.97132700      1.36614600      0.46065900
C           3.26593700     -0.16651700      0.68615700
C           2.17981100     -0.65793000      0.05969100
C           0.88353900      0.00806000      0.03483200
C          -0.21358100     -0.46472400     -0.58043000
H           4.91672800     -0.93931800      1.79829100
H           4.53336200     -1.84769700      0.32435200
H           5.50764200     -0.07643600     -1.08919500
H           6.67007800     -0.65313600      0.11471400
H           5.08751700      2.00280500      0.28731600
H           6.81325300      1.82497200     -0.08236600
H           6.20790600      1.40733600      1.53880900
H           3.16799500      0.79264600      1.21057000
H           2.25205600     -1.61813700     -0.46723200
H           0.82596800      0.96370000      0.56999900
H          -0.19942900     -1.41439200     -1.12447900
H          -1.15824900      0.08334900     -0.55871000
