20
b3lypvdz=-236.903852477515 
C           4.61820400     -0.92585900      0.20736600
C           5.91790700     -0.11445800      0.02299200
C           5.95250500      1.30918800      0.59851600
C           4.96680500      2.29959700     -0.02729000
C           4.27909000     -1.16785800      1.68431800
C           4.71196300     -2.25722000     -0.54931100
H           3.79024300     -0.34146400     -0.24283300
H           6.14708100     -0.06431100     -1.05854300
H           6.74535900     -0.69455200      0.47768200
H           6.97813600      1.69973900      0.46506500
H           5.78628800      1.27785600      1.69106600
H           3.91568800      2.01341400      0.15089300
H           5.10755200      2.37205400     -1.12090400
H           5.10454100      3.31023700      0.39186400
H           4.17424600     -0.23199800      2.25437200
H           3.33669800     -1.73081500      1.79340000
H           5.07136000     -1.76718000      2.17087100
H           5.51719400     -2.88865900     -0.13005700
H           3.77531800     -2.83544800     -0.47778800
H           4.93572200     -2.10086300     -1.61798000
