10
b3lypvdz=-155.891320420126 
C          -3.97986800      0.34623500      0.18355500
C          -5.36270500     -0.10280600      0.06273200
C          -6.43285400      0.67777800      0.29059300
C          -2.90951400     -0.43988100     -0.02312900
H          -3.82430700      1.39433400      0.46750600
H          -5.51844900     -1.14634100     -0.23723900
H          -7.44907200      0.28747200      0.18792700
H          -6.32625900      1.72540600      0.59075700
H          -1.89345100     -0.05036100      0.08349000
H          -3.01572200     -1.49173700     -0.30849200
