14
b3lypvdz=-233.245368182605 
C           3.41017300      0.11731800     -0.24872100
C           3.68614800      1.43096100     -0.33383200
C           2.09000400     -0.51192200     -0.19979300
C           0.89310200      0.10708800     -0.06077800
C          -0.37561600     -0.59715300     -0.03386500
C          -1.57804800     -0.00397000      0.08630200
H           4.25525400     -0.58060400     -0.22047100
H           4.71817600      1.78775900     -0.35772500
H           2.90260600      2.19218300     -0.39063000
H           2.08502400     -1.60604100     -0.28155900
H           0.85216500      1.19832700      0.04594200
H          -0.32476700     -1.68991500     -0.12290100
H          -2.50136100     -0.58696600      0.09931700
H          -1.67186000      1.08293500      0.17741400
