15
b3lypvdz=-196.401942931643 
C           4.51089500     -0.83701900      0.36581700
C           3.52636200      0.15995700     -0.18203900
C           5.03468400      2.18713100     -0.32241400
C           3.72361000      1.45515500     -0.48297700
C           2.59674200      2.29745700     -1.03205800
H           5.53776400     -0.44530900      0.41794700
H           4.22225400     -1.16719300      1.38161600
H           4.53012900     -1.74843100     -0.25757300
H           2.51772300     -0.24008600     -0.35244600
H           5.81434400      1.58051200      0.15886200
H           5.42014900      2.52615400     -1.30225800
H           4.89577500      3.09969000      0.28520800
H           2.39709200      3.17172300     -0.38639000
H           1.66482700      1.71910000     -1.12626500
H           2.85235000      2.70445900     -2.02923200
