14
b3lypvdz=-158.336089368263 
C           4.62657300     -2.06600500     -0.64765700
C           4.63761600     -0.85811400      0.30041800
C           5.96173300     -0.08825200      0.19441600
C           4.36952300     -1.28599600      1.75034600
H           5.42052600     -2.78558100     -0.37935400
H           3.66296900     -2.60264000     -0.60822700
H           4.79574000     -1.75229200     -1.69240700
H           3.82276200     -0.17642600     -0.01094000
H           5.95940700      0.80598200      0.83960700
H           6.15141700      0.24561300     -0.83991200
H           6.81044900     -0.72455100      0.50440400
H           4.35159100     -0.41479800      2.42704600
H           3.40202500     -1.80844900      1.84405500
H           5.15427100     -1.97538900      2.10940500
