10
b3lypvdz=-155.885557861906 
C           2.10526100     -0.53686400     -0.21926600
C           0.90853700      0.01640500      0.03002600
C           3.40901400      0.14493500     -0.15306000
C           3.63852500      1.43446400     -0.44225300
H           2.14192400     -1.60003600     -0.48793300
H          -0.01167000     -0.56501200     -0.06908700
H           0.81202100      1.05637100      0.35593000
H           4.25992400     -0.48537100      0.13465400
H           4.63991900      1.86372200     -0.35276900
H           2.83934600      2.09728600     -0.78684200
