16
b3lypvdz=-234.462732074795 
C           4.54699700     -0.85008900      0.38859700
C           3.46386500      0.09210700     -0.09338900
C           4.94952600      2.17435800     -0.29539000
C           3.67276200      1.38638900     -0.41221200
C           2.12484700     -0.52548800     -0.22548200
C           0.94359200      0.06320500      0.01824100
H           5.55253200     -0.40830900      0.34342900
H           4.35923000     -1.17005100      1.43017600
H           4.56216700     -1.76514400     -0.22853900
H           5.74217300      1.64510400      0.25390900
H           5.34435100      2.44129700     -1.29400600
H           4.75848900      3.12590100      0.23242100
H           2.82529300      1.95133300     -0.81903500
H           2.12099000     -1.58093500     -0.52975000
H           0.00576200     -0.47985400     -0.13071200
H           0.87352400      1.09437600      0.37774200
