6
b3lypvdz=-115.656636330653 
O          -8.69123700      1.54396500     -0.04832600
C          -7.89229800      0.40949700      0.24503500
H          -8.41374000      1.87502900     -0.91445000
H          -6.80599300      0.63810900      0.26741900
H          -8.18570400      0.06470900      1.24953800
H          -8.05802700     -0.42951000     -0.46101700
