19
b3lypvdz=-273.746507796118 
C           4.38680700     -0.92495900      0.50111500
C           3.34455400      0.04281800     -0.03820800
C           4.96729800      1.96838400     -0.50202300
C           3.63141800      1.28106100     -0.49382500
C           4.95587700     -1.85544900     -0.58349400
C           1.96648100     -0.49594300     -0.08964600
C           0.82862400      0.19186400      0.08716700
H           5.21420300     -0.37607600      0.97792600
H           3.92596300     -1.53412400      1.29858600
H           5.77656600      1.34262000     -0.09868800
H           5.25007500      2.26877600     -1.52762900
H           4.93540900      2.90000300      0.09171000
H           2.80757700      1.85997800     -0.92739300
H           5.65634500     -2.58766800     -0.14701900
H           4.15883900     -2.41948300     -1.09850800
H           5.49609900     -1.27779800     -1.35232000
H           1.89092700     -1.57899500     -0.25789700
H          -0.14449300     -0.30198400      0.02206200
H           0.83313100      1.26197400      0.31578300
