19
b3lypvdz=-273.749801429304 
C           4.50809400     -0.89819700      0.35165700
C           3.20644900     -0.12426700      0.26135800
C           4.70279000     -1.46061400      1.77595700
C           4.62066900     -2.00605700     -0.70706500
C           1.98887100     -0.64971600      0.02581200
C           0.76191700      0.13471600     -0.02641900
C          -0.46769100     -0.36685300     -0.23368000
H           5.32730100     -0.17920000      0.16941300
H           3.26932800      0.95820400      0.43628500
H           4.61885600     -0.66635700      2.53575900
H           3.93478800     -2.21926800      2.00067800
H           5.69215700     -1.93818100      1.88342300
H           5.61330600     -2.48594600     -0.67347900
H           3.87225000     -2.79960300     -0.54290100
H           4.46834300     -1.59859100     -1.71971900
H           1.88567800     -1.72830800     -0.14941400
H           0.87733600      1.21639000      0.12235300
H          -0.63005400     -1.43881200     -0.38502400
H          -1.34768800      0.27926000     -0.26279400
