17
b3lypvdz=-272.533362696486 
C           3.34049600      0.17532500     -0.12752100
C           3.68093200      1.43161900     -0.48624100
C           2.03241600     -0.48281900     -0.20353400
C           2.81059600      2.48635100     -1.10585000
C           0.81291900      0.07423800     -0.00236300
C          -0.43530000     -0.66918100     -0.07917800
C          -1.65703700     -0.15143600      0.14786900
H           4.15149300     -0.46927700      0.23355100
H           4.72611600      1.72296900     -0.32368500
H           2.06546600     -1.56297300     -0.40247000
H           2.51932300      3.25305500     -0.36312100
H           1.88791600      2.06909200     -1.53510200
H           3.35991600      3.01884700     -1.90193000
H           0.73924900      1.13233200      0.27105900
H          -0.35034200     -1.73043500     -0.34574400
H          -2.55732100     -0.76624300      0.07667000
H          -1.79093800      0.90073700      0.41869000
