13
b3lypvdz=-232.295269472879 
O          -8.65938500      1.58232800     -0.05211100
C          -5.43160300     -0.16438200      0.01062300
C          -5.56593100     -1.59793100     -0.42432600
C          -6.41826800      0.68850200      0.32144100
C          -7.90269700      0.42352900      0.29503700
H          -8.35017700      1.86957100     -0.92481400
H          -4.40067300      0.20323800      0.09636200
H          -5.13288700     -1.75027400     -1.43029400
H          -6.60897300     -1.94537200     -0.44113700
H          -5.00376200     -2.26309500      0.25400200
H          -6.15367000      1.69833600      0.65967800
H          -8.25982500      0.14573500      1.30295200
H          -8.14574900     -0.42298600     -0.37571200
