18
b3lypvdz=-310.611499776111 
C           2.07468400     -0.66473700     -0.20059600
C           0.94480000      0.03921800      0.00789300
C          -0.39582900     -0.50358100     -0.11220000
C          -1.52930400      0.21660500      0.09505900
C          -2.86758500     -0.31756800     -0.02255200
C          -4.00090500      0.40146800      0.18945600
C          -5.34165300     -0.14150800      0.07039800
C          -6.47144200      0.55892600      0.29087600
H           3.05772100     -0.19872800     -0.09609400
H           2.05038900     -1.72156600     -0.48523100
H           1.02416700      1.09510000      0.29369500
H          -0.47560800     -1.56206200     -0.39031400
H          -1.44496000      1.27371200      0.37684000
H          -2.95207300     -1.37403700     -0.30664100
H          -3.92090100      1.45835400      0.47328300
H          -5.42095100     -1.19469100     -0.22497900
H          -7.45430500      0.09266500      0.18570400
H          -6.44724700      1.61282800      0.58600300
