15
b3lypvdz=-196.397153136741 
C           4.57025000     -0.88705300      0.36699400
C           3.57141900      0.06746600     -0.23589500
C           4.97960800      2.19772100     -0.26969200
C           3.74602600      1.36900800     -0.50781900
C           4.25998300     -1.24913500      1.83154200
H           5.58883500     -0.47015000      0.30160200
H           4.57748500     -1.81517400     -0.23457500
H           2.58625800     -0.36655700     -0.45486500
H           5.77462100      1.64191500      0.24950400
H           5.39761700      2.58277100     -1.21809300
H           4.73514300      3.08417400      0.34266000
H           2.89984800      1.91005000     -0.95014400
H           4.30842700     -0.35408600      2.47450000
H           3.24842600     -1.67948300      1.93479600
H           4.97745300     -1.98946900      2.22278700
