14
b3lypvdz=-158.335396863418 
C           4.62854400     -2.13273700     -0.55702300
C           4.61586600     -0.77268900      0.14331900
C           5.95852000     -0.03471000      0.07202400
C           5.94717000      1.32746500      0.76758200
H           5.39166100     -2.80131000     -0.12277000
H           3.65550900     -2.64465400     -0.47085100
H           4.85882600     -2.02966200     -1.63225800
H           3.82943400     -0.13335600     -0.30057700
H           4.33034700     -0.90761900      1.20397800
H           6.24485400      0.09359000     -0.98913900
H           6.74472100     -0.67139300      0.52035600
H           5.19012800      1.99827500      0.32600600
H           6.92372700      1.83341800      0.68623600
H           5.70889400      1.23088200      1.84161800
