18
b3lypvdz=-235.675865521156 
C           4.58103100     -0.87976500      0.29663800
C           5.88076300     -0.06140700      0.16413700
C           3.39501400     -0.00447900     -0.10917500
C           4.41873900     -1.32600600      1.76682600
C           4.67723000     -2.11984800     -0.61664000
C           2.12959300     -0.41038100     -0.26013400
H           5.85696800      0.83580200      0.80564400
H           6.03849800      0.27377800     -0.87531100
H           6.75573400     -0.66404900      0.46159400
H           3.61393900      1.05812400     -0.27870500
H           4.33662700     -0.45635400      2.44030500
H           3.51539100     -1.94288800      1.90308200
H           5.28662700     -1.92711900      2.09168400
H           5.54820700     -2.74092600     -0.34275200
H           3.77989200     -2.75551700     -0.53850200
H           4.78868000     -1.82218600     -1.67294600
H           1.34168900      0.29634900     -0.53427000
H           1.82767800     -1.45262800     -0.10977500
