17
b3lypvdz=-272.542384988537 
C           4.64377800     -0.78801700      0.15533600
C           3.31255800     -0.10382700      0.20364500
C           2.11167600     -0.69823500      0.04876800
C           0.84556200      0.00658500      0.10644900
C          -0.37618600     -0.56296200     -0.03719000
C          -1.62399400      0.17613400      0.02982200
C          -2.85295100     -0.35951900     -0.09243300
H           5.29611100     -0.35634100     -0.62501400
H           5.18400000     -0.65440200      1.11165100
H           4.54801700     -1.86860000     -0.03770200
H           3.33154100      0.97780000      0.39438900
H           2.07122000     -1.77963400     -0.13848300
H           0.89736000      1.08818700      0.28895300
H          -0.44487900     -1.64394700     -0.21528600
H          -1.53352200      1.25676600      0.20004400
H          -3.75032800      0.25989600     -0.03033500
H          -2.99646400     -1.43138500     -0.26071400
