19
b3lypvdz=-273.746914173352 
C           4.53533300     -0.77001800      0.31685000
C           3.39803900      0.11527100     -0.16652700
C           3.63235500      1.40418000     -0.49379700
C           4.37197200     -1.25928100      1.76600400
C           2.09019200     -0.56502200     -0.29116300
C           2.67824800      2.41345400     -1.06853700
C           0.87559300     -0.08390600      0.01898000
H           5.48737400     -0.22415400      0.21013500
H           4.60697200     -1.65177200     -0.34929000
H           4.65869100      1.76647200     -0.34870400
H           4.32120600     -0.40606900      2.46349100
H           3.44781200     -1.84786200      1.89363200
H           5.21821300     -1.89922700      2.06828900
H           2.14774800     -1.60313800     -0.64795900
H           2.31914300      3.12257800     -0.29861800
H           1.79249500      1.94244200     -1.52081600
H           3.18692500      3.02196300     -1.83688100
H          -0.01972300     -0.69669000     -0.11946400
H           0.73351300      0.91557800      0.43707500
