10
b3lypvdz=-193.007774596333 
O          -8.59955800      1.51260500     -0.20919800
C          -5.44054300     -0.08301400     -0.06320500
C          -6.40740300      0.68825800      0.44278600
C          -7.88019100      0.40773100      0.32865900
H          -8.22539000      1.69534100     -1.08482400
H          -4.38320800      0.17270000      0.05298200
H          -5.67288700     -1.00858100     -0.60170400
H          -6.15192400      1.61401600      0.97360900
H          -8.31069700      0.24580100      1.33194700
H          -8.04679800     -0.52135700     -0.25325100
