16
b3lypvdz=-234.466822697232 
C           4.62836200     -0.78881200      0.18148500
C           3.27077100     -0.16785100      0.35128700
C           4.68069600     -2.11685000     -0.57303000
C           2.09844300     -0.64130800     -0.11110800
C           0.82030500      0.02604500      0.11363100
C          -0.36756500     -0.41964100     -0.32770100
H           5.28872700     -0.04916700     -0.31483600
H           5.08096300     -0.91882300      1.18449900
H           3.25672100      0.77290800      0.91794500
H           5.71831400     -2.48056600     -0.64129700
H           4.08726400     -2.89266500     -0.06110800
H           4.29047200     -2.02019100     -1.59990900
H           2.06853000     -1.57664700     -0.68078400
H           0.86127600      0.95974300      0.68813900
H          -0.45088400     -1.34659800     -0.90350300
H          -1.29219400      0.12422300     -0.12200900
