18
b3lypvdz=-310.605926949173 
C           3.40984600      0.07010500     -0.25949900
C           3.74644800      1.37338800     -0.29168100
C           2.06595200     -0.50162100     -0.22988300
C           0.89277700      0.16895200     -0.09312700
C          -0.40036900     -0.46826300     -0.08014600
C          -1.58249000      0.18991500      0.04929700
C          -2.87574800     -0.46366800      0.05476000
C          -4.05717300      0.17368900      0.16496900
H           4.22329400     -0.66501000     -0.26338300
H           4.79390000      1.68202200     -0.30640300
H           2.99943200      2.17210500     -0.31074800
H           2.01372300     -1.59314900     -0.32636200
H           0.90291500      1.25981700      0.02305100
H          -0.41711600     -1.56097600     -0.18722400
H          -1.57265600      1.28246000      0.15578900
H          -2.86593300     -1.55670900     -0.04314700
H          -5.00140500     -0.37481400      0.16151200
H          -4.11169600      1.26265700      0.26392400
