16
b3lypvdz=-234.462186870146 
C           4.53837800     -0.75506100      0.31398800
C           3.40348600      0.12788900     -0.16414700
C           3.63343500      1.41572500     -0.49689900
C           2.09816000     -0.55857300     -0.27933100
C           2.67658100      2.41392100     -1.08579700
C           0.88509800     -0.07822300      0.03735500
H           5.48793100     -0.20050900      0.35779200
H           4.33400000     -1.17617600      1.31513600
H           4.67842200     -1.61666000     -0.36367000
H           4.65607200      1.78556100     -0.34573100
H           2.15786200     -1.60087500     -0.62290700
H           2.31265700      3.13227900     -0.32679300
H           1.79466300      1.93315500     -1.53507100
H           3.18511500      3.01345900     -1.86135900
H          -0.00868300     -0.69734900     -0.08098600
H           0.74312400      0.92613500      0.44382100
