12
b3lypvdz=-157.109410261689 
C           4.64924200     -2.03363900     -0.63386000
C           4.55899500     -0.81199500      0.29436200
C           3.46365000      0.14166400     -0.10014800
C           3.64320500      1.41542300     -0.46303900
H           5.44696200     -2.72190700     -0.30684600
H           3.70213600     -2.60097600     -0.64437500
H           4.86830100     -1.72338000     -1.66988900
H           5.52538700     -0.27859000      0.30627700
H           4.37519900     -1.16468700      1.32851200
H           2.44377600     -0.26865700     -0.09543100
H           4.64079900      1.86807000     -0.49162200
H           2.79864900      2.05037300     -0.74594100
