17
b3lypvdz=-197.618982729618 
C           4.56918700     -0.81243700      0.01497400
C           5.91206600     -0.07377200     -0.06415600
C           5.93490500      1.31403900      0.59157300
C           4.97809500      2.34790100     -0.00693200
C           4.66833600     -2.27581200     -0.42230500
H           3.81919100     -0.29009500     -0.60527400
H           4.18707500     -0.76855300      1.05258800
H           6.22055700      0.00883500     -1.12451000
H           6.68561600     -0.69479000      0.42495400
H           6.96577700      1.70867000      0.53375000
H           5.71194400      1.20013300      1.66965000
H           3.92249500      2.04616100      0.10258000
H           5.17016800      2.50158500     -1.08377000
H           5.09386200      3.32350000      0.49317900
H           5.37939900     -2.83222100      0.21159800
H           3.69488600     -2.78909000     -0.35533500
H           5.02464100     -2.36585400     -1.46386300
