18
b3lypvdz=-235.684268977729 
C           4.63265900     -0.77549300      0.20807100
C           6.02989800     -0.15345200      0.28938200
C           3.54433300      0.17816800     -0.23406200
C           3.67505000      1.45033700     -0.62969000
C           4.63223800     -2.04030400     -0.67136700
C           2.53393700      2.34333300     -1.02874000
H           4.35440500     -1.10744300      1.23020100
H           6.05216400      0.71855800      0.96193700
H           6.37976200      0.17880700     -0.70328200
H           6.75530600     -0.89047000      0.67080600
H           2.53130900     -0.25094300     -0.21702400
H           4.67303900      1.90468500     -0.66584100
H           5.33339500     -2.79600700     -0.27959900
H           3.63090200     -2.50036800     -0.71232400
H           4.93462800     -1.79559000     -1.70491700
H           2.46887700      3.23161200     -0.37567600
H           1.57066400      1.81052300     -0.97474900
H           2.65723400      2.73194700     -2.05632800
