12
b3lypvdz=-157.108907895363 
C           5.99313300      1.34354700      0.63154700
C           3.35290300      0.14280900     -0.09688200
C           4.94511700      2.12460700     -0.15936400
C           3.67735600      1.37869000     -0.48975400
H           6.34169900      0.46024600      0.07090600
H           6.87154500      1.97327100      0.84426200
H           5.59299900      0.98747400      1.59555100
H           4.01473700     -0.46536500      0.52630000
H           2.40232100     -0.31057800     -0.38967900
H           5.39126600      2.48953500     -1.10532500
H           4.66960300      3.04970400      0.38478300
H           2.96262000      1.93425800     -1.11134500
