18
b3lypvdz=-235.68430616158 
C           4.64199700     -0.76041400      0.28536500
C           6.05379900     -0.16600100      0.24474100
C           3.55722000      0.16256500     -0.22739000
C           3.67805700      1.44749600     -0.58178300
C           4.29571600     -1.24814800      1.70676800
C           2.54200400      2.32266300     -1.03558900
H           4.63190100     -1.65472700     -0.37062300
H           6.14136100      0.70753200      0.91310200
H           6.33454000      0.15758900     -0.77046200
H           6.79176600     -0.91366400      0.58010400
H           2.55802700     -0.29496700     -0.28204600
H           4.66323600      1.92890500     -0.54157600
H           4.31583500     -0.40476100      2.41886300
H           3.29040500     -1.70053400      1.74825900
H           5.01759400     -2.00693200      2.05275500
H           2.41185700      3.19155900     -0.36655400
H           1.59045600      1.76755000     -1.06088800
H           2.72903000      2.73569000     -2.04424600
