15
b3lypvdz=-196.399657873208 
C           4.52782400     -0.81489300      0.27575300
C           3.46771900      0.13510100     -0.21504500
C           3.67159300      1.40839000     -0.57241700
C           4.68778000     -2.06385400     -0.60560100
C           2.61021400      2.36449500     -1.04010200
H           5.49133300     -0.28045200      0.34561500
H           4.27371500     -1.14396400      1.30259400
H           2.44818900     -0.27389500     -0.27937100
H           4.69231600      1.81302400     -0.51473000
H           5.45602100     -2.74223000     -0.19763800
H           3.74340600     -2.63208300     -0.66991400
H           4.98503100     -1.78713200     -1.63135900
H           2.53614700      3.24151000     -0.37276900
H           1.62071600      1.88119600     -1.07881700
H           2.84129500      2.76068600     -2.04619900
