16
b3lypvdz=-234.468308591119 
C          -2.88973300     -0.38771200     -0.05891100
C          -4.02039300      0.28710500      0.20817600
C          -5.40047800     -0.20116700      0.06314100
C          -5.59466600     -1.63376500     -0.36823100
C          -6.41000700      0.66019600      0.33125300
C          -7.88826500      0.43800300      0.23769400
H          -1.91404500      0.08274600      0.08458800
H          -2.89139700     -1.41408600     -0.43321900
H          -3.93614200      1.31634500      0.57628700
H          -5.16338400     -1.81133800     -1.36931200
H          -6.65217000     -1.92627600     -0.39543800
H          -5.07128100     -2.32056500      0.31874800
H          -6.11602300      1.66608500      0.65722200
H          -8.35001300      1.15818400     -0.46169400
H          -8.37843700      0.61716900      1.21280200
H          -8.15896700     -0.57242500     -0.10020800
