14
b3lypvdz=-270.36585198651 
O          -8.63191700      1.43764800     -0.30117800
C          -2.95296200     -0.44150500     -0.11434400
C          -3.98653200      0.34430400      0.23022500
C          -5.38930100     -0.01670300      0.07091800
C          -6.42153700      0.75959200      0.45086500
C          -7.87154000      0.39953700      0.30919700
H          -8.23978800      1.60309500     -1.17245700
H          -1.91980800     -0.11712300      0.03173400
H          -3.11109800     -1.43422900     -0.54735800
H          -3.78686600      1.32992500      0.66730300
H          -5.59407400     -0.99473700     -0.38436500
H          -6.22507200      1.74024800      0.90265900
H          -8.32575200      0.26671800      1.30682800
H          -7.97665200     -0.56537000     -0.22702800
