12
b3lypvdz=-157.109374728419 
C           4.38463200     -0.94758500      0.38091600
C           3.18793000     -0.08057000      0.09221600
C           2.13077400     -0.43294400     -0.64600000
C           4.61375400     -1.17627800      1.88447300
H           5.28651200     -0.46668900     -0.04489600
H           4.27191200     -1.91594800     -0.13583000
H           3.20587400      0.91984900      0.54597300
H           1.29507300      0.25215200     -0.81272700
H           2.06355600     -1.41922000     -1.11828600
H           4.78245700     -0.22288000      2.41394900
H           3.74181900     -1.66692100      2.34827700
H           5.49520600     -1.81496600      2.05963500
