13
b3lypvdz=-195.182637949526 
C           4.63477700     -0.76158400      0.22434000
C           3.30279600     -0.07778000      0.16487500
C           2.10919800     -0.68584900      0.03140100
C           0.83664100      0.02382600     -0.01048300
C          -0.37009700     -0.55567700     -0.12959000
H           5.31306100     -0.40556000     -0.57181300
H           5.14270400     -0.53681700      1.18091600
H           4.54258900     -1.85582700      0.13183500
H           3.31689700      1.01754100      0.25336800
H           2.07005700     -1.78058400     -0.05290700
H           0.89439200      1.11742900      0.06837700
H          -0.47952800     -1.64205700     -0.21033300
H          -1.28548700      0.03973800     -0.15378400
