16
b3lypvdz=-234.459482827654 
C           4.58936400     -0.76170100      0.21107900
C           5.97618700     -0.12341200      0.26630300
C           3.43851700      0.13878500     -0.20243000
C           3.59062100      1.42977800     -0.54400800
C           2.11323700     -0.52384600     -0.22963200
C           0.93990900      0.02787600      0.11036000
H           4.34197000     -1.20027400      1.19716800
H           4.60483700     -1.62774300     -0.47914400
H           6.01598000      0.70747200      0.98989700
H           6.27941500      0.27710700     -0.71528500
H           6.72775800     -0.86778900      0.57357800
H           4.56145500      1.92785800     -0.51236200
H           2.73954700      2.02496500     -0.88233700
H           2.12286400     -1.57800700     -0.53719300
H           0.00951400     -0.54242500      0.04503900
H           0.87172200      1.05655500      0.47636700
