21
b3lypvdz=-274.962239059069 
C           4.59918900     -0.96260900      0.19329000
C           5.84897100     -0.03282800      0.15286000
C           5.69623400      1.33559300      0.82477700
C           3.42494600     -0.23772800     -0.43881000
C           4.30985000     -1.42929200      1.63010900
C           4.90974500     -2.20261200     -0.67836600
C           2.24335000      0.06098200      0.11099900
H           6.12871600      0.12170100     -0.90584300
H           6.69028800     -0.58343600      0.61291500
H           4.87340400      1.91192500      0.37309200
H           6.62049600      1.92681800      0.71110900
H           5.48740800      1.24861700      1.90400900
H           3.60107800      0.06323900     -1.48161400
H           4.04991300     -0.59436100      2.29832100
H           3.47670500     -2.15146600      1.65514800
H           5.19644100     -1.93326700      2.05009600
H           5.78540100     -2.74481900     -0.28171000
H           4.05498200     -2.89855500     -0.69720800
H           5.13893000     -1.91129600     -1.71776500
H           1.47306300      0.58049200     -0.46575700
H           1.99308900     -0.19919900      1.14284600
