12
b3lypvdz=-157.109346247761 
C           4.57984000     -0.77932600      0.54050000
C           5.87151300     -0.14935600     -0.00374800
C           3.33918300      0.00506200      0.20975900
C           2.28455900     -0.45556200     -0.46949300
H           4.66407400     -0.84537600      1.64304200
H           4.47657100     -1.81353700      0.16878600
H           5.98843600      0.88914900      0.35194500
H           5.87723700     -0.13004400     -1.10638700
H           6.75568300     -0.71514100      0.33282600
H           3.32227400      1.03985000      0.57896300
H           1.41029100      0.17122800     -0.66498800
H           2.25393900     -1.47884700     -0.85920500
