19
b3lypvdz=-273.74381126657 
C           4.53877300     -0.82955900      0.31267000
C           3.39149000      0.06493400     -0.15085600
C           3.61487500      1.32710800     -0.55621000
C           4.31844700     -1.33702400      1.74872100
C           4.78337100     -1.99637300     -0.66104800
C           2.03330700     -0.52694700     -0.16461400
C           0.89170900      0.11017300      0.13309100
H           5.44670600     -0.20119700      0.30529400
H           4.61992800      1.75875800     -0.52993400
H           2.80992100      1.95753600     -0.94101700
H           4.17969700     -0.49829800      2.44947700
H           3.42328700     -1.97886900      1.81381300
H           5.18047500     -1.93446200      2.09007400
H           5.67259800     -2.57371300     -0.35594200
H           3.93411100     -2.70121100     -0.68245000
H           4.94813900     -1.62793200     -1.68655500
H           1.97329500     -1.58841800     -0.43451400
H          -0.07184500     -0.40266800      0.07098500
H           0.88411600      1.15426300      0.45971400
