15
b3lypvdz=-196.399662681398 
C           4.59067200     -0.79853800      0.30260700
C           3.51585300      0.11739600     -0.22290300
C           3.69171000      1.40446800     -0.54538200
C           4.32389000     -1.27119600      1.74300900
C           2.61383000      2.33133000     -1.03673200
H           5.56818600     -0.28811100      0.25383700
H           4.66449800     -1.68510100     -0.35603000
H           2.51269300     -0.32277400     -0.32003100
H           4.69438500      1.84284400     -0.44378400
H           4.28211900     -0.41388800      2.43575400
H           3.36316800     -1.81014000      1.81820400
H           5.11590500     -1.95469500      2.09295700
H           2.48224000      3.18914000     -0.35343000
H           1.64462400      1.81550700     -1.12697100
H           2.87542700      2.75025900     -2.02590400
