17
b3lypvdz=-272.533693272961 
C           3.41569100      0.13954500     -0.26692300
C           3.64300800      1.46456700     -0.27610400
C           2.11943000     -0.54182000     -0.27086900
C           0.90670100      0.03406100     -0.09301300
C          -0.38023300     -0.66072300     -0.10693300
C          -0.40727100     -2.15821300     -0.28854400
C          -1.52414000      0.04107600      0.04065500
H           4.28617100     -0.52697000     -0.26685900
H           4.65931300      1.86316600     -0.26011700
H           2.82839100      2.19395500     -0.30506400
H           2.15823500     -1.62384900     -0.43080000
H           0.85374400      1.11343400      0.09053000
H          -1.43392700     -2.54396800     -0.21700700
H           0.00667700     -2.45236500     -1.26873000
H           0.20620100     -2.66959200      0.47208300
H          -2.49839700     -0.45258400      0.03555700
H          -1.50859400      1.12638100      0.17243700
