19
b3lypvdz=-273.746543729823 
C           4.51433400     -0.78213600      0.33947300
C           3.43074300      0.16035300     -0.15097700
C           4.99621900      2.13805100     -0.23892000
C           3.66239000      1.46145500     -0.46209700
C           2.11561900     -0.50476400     -0.29230700
C           2.64101200      2.36993200     -1.10460200
C           0.90848500     -0.05484000      0.08252100
H           5.53032300     -0.42021900      0.13626500
H           4.42949300     -0.97595000      1.42483000
H           4.40801800     -1.76144300     -0.15719000
H           5.67164600      1.58029200      0.42149800
H           5.52017700      2.31170400     -1.19798400
H           4.84203300      3.13536900      0.20977400
H           2.16713200     -1.52392800     -0.70073200
H           2.20887600      3.08429000     -0.37877100
H           1.80997100      1.81851200     -1.56321000
H           3.13217900      2.98605700     -1.87927600
H           0.01646700     -0.67062100     -0.06090400
H           0.76708400      0.92188500      0.55150900
