19
b3lypvdz=-273.753598392014 
C           4.69088100     -0.66326200      0.05675900
C           3.31652400     -0.07105100      0.21994300
C           4.74443500     -2.11821600     -0.41005400
C           2.14341800     -0.67388900     -0.05870200
C           0.84011000     -0.05610900      0.14316700
C          -0.34968300     -0.65039700     -0.08092600
C          -0.54410300     -2.05781500     -0.58686600
H           5.26948700     -0.02730100     -0.64184200
H           5.22920900     -0.56380900      1.02014600
H           3.29243400      0.95214000      0.61678900
H           5.78557500     -2.47285600     -0.46624900
H           4.20023400     -2.78248400      0.28039200
H           4.29544300     -2.23967100     -1.40999400
H           2.14983200     -1.69214700     -0.45616500
H           0.84685700      0.97084200      0.52566500
H          -1.25452300     -0.07273900      0.13431800
H          -1.61135700     -2.31837500     -0.64336600
H          -0.11632800     -2.19718200     -1.59582600
H          -0.05784300     -2.80098000      0.06831200
