15
b3lypvdz=-196.398887576733 
C           4.60805900     -0.75914500      0.21489300
C           6.01989500     -0.17814600      0.30259900
C           3.52329300      0.18318600     -0.24386500
C           3.66540100      1.45763300     -0.62787200
C           2.53837400      2.35728900     -1.05108500
H           4.31348400     -1.16428500      1.20309600
H           4.60855100     -1.64518300     -0.44986000
H           6.06609200      0.67242100      1.00320800
H           6.37291100      0.18379600     -0.67750300
H           6.73238300     -0.94021500      0.65685400
H           2.51021700     -0.24500100     -0.24703200
H           4.66665900      1.90673400     -0.63915100
H           2.46598000      3.24901300     -0.40351300
H           1.57055600      1.83104800     -1.01427300
H           2.68374400      2.74125300     -2.07789700
