14
b3lypvdz=-158.333648619169 
C           4.61849300     -0.83698300      0.31456700
C           5.95823200     -0.09772900      0.14521100
C           5.94428600      1.34363700      0.67297200
C           4.33788000     -1.29079600      1.75394000
H           3.79733100     -0.18466500     -0.03857100
H           4.60939900     -1.72476400     -0.34292000
H           6.22889500     -0.07971400     -0.92635600
H           6.75556600     -0.67093800      0.65403900
H           5.18319700      1.94754500      0.15063500
H           6.92057200      1.83459400      0.51880700
H           5.71941200      1.38434600      1.75305800
H           4.29781100     -0.43809100      2.45258000
H           3.37430600     -1.82349500      1.82390400
H           5.12461700     -1.97904500      2.10963400
