5
b3lypvdz=-40.480456133554 
C           4.58638300     -0.81207300      0.29531100
H           5.54751900     -0.27997000      0.22662800
H           3.77362600     -0.13696000     -0.01155300
H           4.42089900     -1.14012200      1.33279600
H           4.60367200     -1.69097500     -0.36558200
