19
b3lypvdz=-273.745871532385 
C           4.56683200     -0.74703000      0.21771500
C           5.96769100     -0.13988700      0.28442500
C           3.42809400      0.16068800     -0.23007000
C           3.62442300      1.45019100     -0.57693100
C           2.11910900     -0.52838100     -0.28843900
C           2.61983000      2.42787500     -1.11920000
C           0.92898300     -0.06769700      0.12488900
H           4.30273600     -1.16896500      1.20660600
H           4.58079900     -1.62360900     -0.45942100
H           6.02206400      0.69807300      0.99898100
H           6.29693400      0.23949400     -0.69714900
H           6.69494000     -0.90004500      0.61168400
H           4.64163300      1.84389200     -0.48207200
H           2.16038200     -1.55724600     -0.67286800
H           2.28388600      3.14506200     -0.34661000
H           1.72149400      1.93060500     -1.51372200
H           3.07381900      3.03361900     -1.92263900
H           0.03169100     -0.68767600      0.04497000
H           0.80945900      0.92173800      0.57275200
