16
b3lypvdz=-234.460687197306 
C           6.10103300      1.32389300      0.42762700
C           3.34048300      0.14855600      0.13339100
C           4.91048000      2.14738600     -0.06214800
C           3.60919700      1.41258200     -0.24183300
C           2.05240100     -0.54416800     -0.03840100
C           0.84097800      0.01685200     -0.18200600
H           6.33102400      0.50144300     -0.26895600
H           6.99991400      1.95545900      0.50820300
H           5.91654300      0.87547000      1.41835700
H           4.13775800     -0.44851000      0.58866000
H           5.17221000      2.63021800     -1.02395000
H           4.73413800      3.00105200      0.62291100
H           2.81488200      1.98550000     -0.73672600
H           2.11356000     -1.63991100     -0.03518800
H          -0.04956800     -0.59774500     -0.33073800
H           0.69686700      1.10132300     -0.15060200
