19
b3lypvdz=-273.747120160246 
C           4.51725000     -0.89523500      0.38177100
C           3.44864700      0.05638600     -0.12535800
C           4.94031400      2.13701500     -0.20146500
C           3.67117900      1.35913300     -0.40219700
C           4.42026500     -1.18948200      1.88857400
C           2.11158200     -0.54933400     -0.33390000
C           0.91679800      0.03609800     -0.16270900
H           5.51871600     -0.50454800      0.14452200
H           4.41834900     -1.84486300     -0.17520800
H           5.71688700      1.57075400      0.33285000
H           5.36866800      2.47423500     -1.16430100
H           4.73890400      3.05650200      0.37686300
H           2.83632400      1.92504400     -0.83268700
H           4.59442000     -0.27383400      2.47831500
H           3.42146500     -1.57128100      2.16020500
H           5.16389000     -1.94125800      2.19955000
H           2.12680500     -1.60244800     -0.64628000
H          -0.00949400     -0.50187200     -0.38109900
H           0.82383000      1.06408800      0.20045300
