12
b3lypvdz=-157.112553491388 
C          -5.43860600     -0.16226700     -0.00814300
C          -5.55423100     -1.59768500     -0.44345600
C          -6.42623600      0.68308700      0.32056300
C          -7.90661700      0.41791900      0.32406200
H          -4.41136700      0.22272600      0.04494800
H          -5.12829100     -1.73239500     -1.45529000
H          -6.59185600     -1.96326800     -0.46114700
H          -4.97601400     -2.25543400      0.22974600
H          -6.13813400      1.69542400      0.63178700
H          -8.43101700      1.12438000     -0.34356200
H          -8.32604600      0.57020700      1.33590200
H          -8.16498400     -0.60199200      0.00068800
