19
b3lypvdz=-273.749879497227 
C           4.65112100     -0.93234700      0.31436000
C           5.84094500      0.01909400      0.12238200
C           3.33673100     -0.18011800      0.22439400
C           4.73069600     -2.11871000     -0.65707700
C           2.11757000     -0.71487600      0.02037000
C           0.88527900      0.06206300     -0.01845900
C          -0.34734100     -0.45437100     -0.16308800
H           4.71830300     -1.34085600      1.34409000
H           5.80676300      0.85710400      0.83803900
H           5.84276900      0.45060200     -0.89403800
H           6.79647200     -0.51093800      0.26708900
H           3.39642400      0.90708600      0.37345000
H           5.70032200     -2.63579400     -0.56296200
H           3.94455800     -2.86556400     -0.46464000
H           4.62285100     -1.77207700     -1.69956800
H           2.01400800     -1.79787200     -0.12375300
H           0.99723500      1.14900000      0.08896000
H          -0.50716900     -1.53217400     -0.26935600
H          -1.23303800      0.18435000     -0.17959300
