18
b3lypvdz=-235.679265267178 
C           4.63267600     -0.80079300      0.29255800
C           6.00804900     -0.11850700      0.22835400
C           3.50377800      0.12293200     -0.12519700
C           3.58646000      1.40900100     -0.47893900
C           4.36544900     -1.27228300      1.73962100
C           4.62513800     -2.02472400     -0.65146700
H           6.06311000      0.75194900      0.90251300
H           6.24244800      0.22657400     -0.79218400
H           6.79693500     -0.82621100      0.53433200
H           2.50938500     -0.34668500     -0.12467400
H           4.53524900      1.95183600     -0.51018500
H           2.68897800      1.96870000     -0.75738500
H           4.38220700     -0.42200800      2.44205400
H           3.38239100     -1.76645300      1.82802600
H           5.13073100     -1.99908900      2.06215300
H           5.39764300     -2.75504100     -0.35529000
H           3.65076600     -2.54318300     -0.63250300
H           4.82510800     -1.71881500     -1.69268800
