8
b3lypvdz=-79.764190469064 
C           4.59321300     -0.80843900      0.29530800
C           5.95358700     -0.11226100      0.18379200
H           3.79422300     -0.20029600     -0.16066000
H           4.31964500     -0.98574500      1.34929400
H           4.60058500     -1.78471100     -0.21765700
H           5.94621600      0.86401200      0.69675600
H           6.22715600      0.06504300     -0.87019400
H           6.75257600     -0.72040400      0.63976100
