12
b3lypvdz=-157.112573981175 
C           4.50752700     -0.86033200      0.41913200
C           3.50799500      0.12521400     -0.12080400
C           4.98839500      2.19822500     -0.33776300
C           3.71097400      1.41090700     -0.44338300
H           5.52473300     -0.44582900      0.48313100
H           4.21662500     -1.20811500      1.42766700
H           4.54877500     -1.76144100     -0.21768800
H           2.49615900     -0.27495600     -0.26537500
H           5.80686900      1.62862100      0.12702600
H           5.33171000      2.53637400     -1.33283300
H           4.83149400      3.11205900      0.26248800
H           2.85264400      1.97057300     -0.83579900
