16
b3lypvdz=-234.465771530501 
C           4.49268600     -0.80294200      0.36676800
C           3.17725700     -0.07553700      0.24600200
C           4.74616000     -1.32882400      1.79380100
C           1.99076500     -0.65649700     -0.01422000
C           0.72904800      0.06776300     -0.09068900
C          -0.47281100     -0.49147700     -0.31224400
H           5.31352300     -0.12260300      0.08154600
H           4.52913000     -1.64863100     -0.34248600
H           3.19095200      1.00983700      0.41522600
H           4.71299500     -0.50854400      2.53074800
H           3.97628700     -2.06219500      2.08274900
H           5.73051700     -1.82126100      1.87060800
H           1.95036500     -1.73966500     -0.19443700
H           0.79152900      1.15369800      0.05914500
H          -0.58200100     -1.57031500     -0.46376000
H          -1.38210300      0.11199300     -0.35435700
