19
b3lypvdz=-273.75390722192 
C           4.71572500     -0.82470200      0.52308100
C           5.91424100      0.08942300      0.24648000
C           3.38572900     -0.15361300      0.29100700
C           2.24435000     -0.77551600     -0.06386300
C           0.97125400     -0.08570500     -0.23919000
C          -0.24654300     -0.64150800     -0.40964200
C          -0.58897900     -2.10224100     -0.44361100
H           4.77498500     -1.17244800      1.57387600
H           4.78213200     -1.74080200     -0.08933700
H           5.87792500      0.99444600      0.87613600
H           5.93761600      0.42387000     -0.80442700
H           6.86334800     -0.42876800      0.46067600
H           3.35633400      0.93353500      0.45189100
H           2.26750900     -1.85924600     -0.23176900
H           1.02980100      1.00999500     -0.21712300
H          -1.09420500      0.04308500     -0.53329900
H          -1.35226200     -2.34294100      0.31759700
H          -1.02716800     -2.38925100     -1.41775000
H           0.27870500     -2.75231300     -0.25943100
