15
b3lypvdz=-196.395305479553 
C           4.56823800     -0.82084800      0.31226100
C           3.47132600      0.12613800     -0.10753400
C           3.64483600      1.40128700     -0.46721800
C           4.35723000     -1.28909900      1.76477000
C           4.64866300     -2.02104000     -0.64960500
H           5.52862800     -0.27620700      0.26133500
H           2.45392900     -0.29220100     -0.10900400
H           4.63966600      1.86066100     -0.48822100
H           2.79812500      2.03015300     -0.75757800
H           4.33537100     -0.43394700      2.46036900
H           3.40351000     -1.83695700      1.87122600
H           5.16579800     -1.96974200      2.08241300
H           5.45957500     -2.71085800     -0.35764100
H           3.70543100     -2.59661500     -0.64980100
H           4.84017500     -1.68632500     -1.68297200
