19
b3lypvdz=-273.743922865576 
C           4.58451500     -0.76013200      0.33283700
C           5.98278500     -0.16518000      0.14347900
C           3.43642000      0.13910500     -0.11921100
C           3.58174000      1.44359700     -0.40823300
C           4.38165200     -1.21578100      1.79210800
C           2.12559500     -0.54284000     -0.25586100
C           0.91483000     -0.01805600     -0.01776300
H           4.51945900     -1.66702300     -0.30150500
H           6.14094500      0.71102200      0.79447700
H           6.15881000      0.14978900     -0.89750300
H           6.74764500     -0.91390600      0.40884900
H           4.53836500      1.95949200     -0.30511500
H           2.73920900      2.03751900     -0.77125600
H           4.46954300     -0.35466900      2.47744900
H           3.38970800     -1.66952200      1.94800200
H           5.14237900     -1.96086000      2.07860000
H           2.17763100     -1.59213000     -0.57640600
H           0.00687200     -0.60476600     -0.18202600
H           0.78959800      1.00373900      0.35287800
