21
b3lypvdz=-274.969105887154 
C           4.65504500     -0.79581000      0.25560600
C           6.05247700     -0.15644300      0.25663000
C           3.56965500      0.15368900     -0.22494100
C           3.68715700      1.43585500     -0.58894200
C           4.30142800     -1.23648500      1.69598000
C           4.66152300     -2.03923900     -0.66277800
C           2.53888300      2.31368000     -1.00207300
H           6.09603800      0.72561100      0.91534200
H           6.35645200      0.15967700     -0.75441100
H           6.79762900     -0.88255600      0.62300500
H           2.56456000     -0.29412100     -0.24820300
H           4.67582000      1.91107900     -0.58570000
H           4.32605600     -0.37686200      2.38571600
H           3.29334700     -1.68254000      1.74253700
H           5.01554700     -1.99472400      2.05967900
H           5.37822300     -2.79382900     -0.29646700
H           3.66602200     -2.51290800     -0.70066600
H           4.94647000     -1.76421500     -1.69197900
H           2.44045700      3.18795600     -0.33453800
H           1.58528800      1.76171300     -0.98113500
H           2.68032100      2.72297100     -2.01926200
