12
b3lypvdz=-319.532492347919 
N           2.01463100     -1.30453700      0.24472700
N          -0.35879500     -0.84093100      0.25427000
N           0.45353500     -3.00056800      0.48679100
C           2.24899100      0.00495200      0.14986700
C          -0.07801600      0.46073500      0.15866200
C           1.22853400      0.96038000      0.11334200
C           0.71333600     -1.66073600      0.31093900
H           1.20867500     -3.61459300      0.19746500
H          -0.47579900     -3.28928200      0.19801200
H           3.30396000      0.30262100      0.09504900
H          -0.94149800      1.13541600      0.11116500
H           1.44154700      2.02784300      0.03601100
