11
b3lypvdz=-173.144022857452 
N           3.62724200      0.43813400     -0.12995300
C           4.66731600     -0.44933200      0.36102100
C           1.24763700      0.90463900      0.18514500
C           2.29642000      0.07825900      0.03746300
H           3.80825300      1.42023500      0.06551700
H           4.52059100     -1.45873100     -0.05772700
H           5.64999800     -0.09402000      0.01464100
H           4.70252600     -0.54361200      1.46630000
H           1.36817100      1.99056700      0.24757300
H           0.23666700      0.49807900      0.21953600
H           2.13617900     -1.00611600     -0.01481800
