16
b3lypvdz=-321.884046274304 
N           3.48781200      0.35884000     -0.15887000
N           1.92251500     -1.22410900      0.57609800
N           0.44478500     -3.00808000      0.41879900
C           4.58452700     -0.48343900      0.29794500
C           2.18030300      0.12376100      0.28121400
C           1.25671300      1.11013600      0.40830000
C           0.87534000     -1.75929000      0.06673700
H           3.71912300      1.34778500     -0.13829100
H           1.08112600     -3.57091200      0.97531800
H          -0.15529400     -3.51079700     -0.22314800
H           4.38537100     -1.53331500      0.04320000
H           5.50342400     -0.17253200     -0.22281500
H           4.76566800     -0.43035900      1.39197600
H           1.51867100      2.15181200      0.20846600
H           0.24890700      0.88040400      0.75104200
H           0.22051100     -1.23630500     -0.65397200
