16
b3lypvdz=-321.890257783328 
N           3.60046500      0.39515000      0.08258800
N          -1.08483700      1.59964400      0.05107700
N           2.16504400     -1.39520000      0.27141300
C           4.71744600     -0.47419200      0.41073800
C           2.30857600     -0.11867400      0.14278300
C          -0.06248700      0.67132200      0.09282300
C           1.26068500      0.92019400      0.00134100
H           3.68209500      1.34234300      0.43845600
H          -1.97848100      1.25714200     -0.28663500
H          -0.84824300      2.50577200     -0.34445800
H           1.17593100     -1.65405100      0.21465700
H           4.76000700     -1.31087000     -0.30114100
H           5.64900900      0.10811100      0.34232400
H           4.63350900     -0.92382400      1.41923700
H          -0.40691000     -0.35099200      0.28440100
H           1.59649200      1.94472400     -0.19820500
