13
b3lypvdz=-228.488065467843 
N          -0.93472300      1.46635700      0.15425800
N           1.24138600      2.48095600      0.03923500
C          -2.37400900      1.60348700      0.01422400
C          -3.13926900      0.76350500      1.03515500
C          -0.03752300      2.50730700      0.08660400
H          -0.55431900      0.52675300      0.08451900
H           1.58077100      1.50564400      0.02429400
H          -2.70493300      1.33132900     -1.00925600
H          -2.61346000      2.67153300      0.14960500
H          -4.22710200      0.90269900      0.91707200
H          -2.85677300      1.04506200      2.06316600
H          -2.92575900     -0.31267700      0.90500600
H          -0.53568700      3.49134500      0.09781700
