17
b3lypvdz=-251.715983480338 
N          -0.96598900      1.71298400      0.35465200
C          -2.29119900      1.32503500     -0.13573700
C          -3.08485400      0.50823700      0.89055100
C          -4.47888200      0.11591000      0.38870700
C           0.08297400      0.80436200      0.26771200
C           1.38808100      1.09690500      0.12667000
H          -0.69369200      2.65597900      0.09197700
H          -2.22814400      0.76605000     -1.09279300
H          -2.83961100      2.25613100     -0.35622900
H          -3.16243600      1.10220100      1.81801900
H          -2.51440300     -0.39980000      1.15807600
H          -4.42383200     -0.53382800     -0.50226800
H          -5.04277300     -0.42958500      1.16272400
H          -5.06973500      1.00634900      0.11100000
H          -0.23468300     -0.24018400      0.36989500
H           1.74009000      2.12821500      0.02241000
H           2.13749000      0.30493900      0.13673400
