13
b3lypvdz=-174.366679165581 
C          -2.28153700      1.41160000     -0.17353700
N          -0.97219800      1.82234100      0.35040300
C          -3.02613500      0.54239900      0.84253100
C          -4.42124900      0.11989100      0.37209700
H          -2.23171800      0.86980900     -1.14526100
H          -2.87184500      2.32705400     -0.36244100
H          -0.33831600      1.01858400      0.34610900
H          -0.54488800      2.50134600     -0.28346900
H          -3.09137900      1.10166400      1.79216800
H          -2.41767300     -0.35658900      1.06045100
H          -4.37744400     -0.50199000     -0.53917800
H          -4.94778700     -0.46434900      1.14480500
H          -5.04713000      0.99934000      0.13962200
