14
b3lypvdz=-158.335332903338 
C          -4.50184500     -1.46475600      0.73864600
C          -2.46647500      1.84899200      0.13760500
C          -2.92488800      0.55385900      0.81308600
C          -4.05154400     -0.16664500      0.06346000
H          -5.31567100     -1.95031500      0.17568700
H          -4.87294600     -1.27655700      1.76121100
H          -3.66887700     -2.18531700      0.81023200
H          -1.69062300      2.36028200      0.73074200
H          -2.04347000      1.65123600     -0.86270600
H          -3.30743800      2.55264300      0.01234100
H          -3.26285900      0.77663100      1.84307500
H          -2.06159000     -0.13111400      0.91047400
H          -3.71679700     -0.39003000     -0.96730300
H          -4.91567700      0.51739300     -0.03075000
