10
b3lypvdz=-189.203364060131 
N           3.57970600      0.43166800      0.05768900
C           4.69129900     -0.46329700      0.32692400
N           2.01437300     -1.26599400      0.29443100
C           2.28667900     -0.02064400      0.15231100
H           3.72318200      1.41576600      0.24793400
H           4.59874900     -1.35804000     -0.30507800
H           5.63293900      0.05339900      0.08656600
H           4.72248400     -0.80928400      1.37859200
H           0.99847400     -1.39774700      0.28037500
H           1.54351500      0.79397400      0.05875600
