17
b3lypvdz=-288.833496385183 
O          -5.79569200     -1.88756100      0.11376300
N          -1.01120400      2.01199000      0.46174000
C          -2.25978400      1.53203700     -0.14341300
C          -2.89095800      0.44076800      0.72143200
C          -4.23179400     -0.08632800      0.18306200
C          -4.49543400     -1.53301600      0.57767800
H          -5.97017700     -2.79909400      0.38625700
H          -0.29514900      1.28570100      0.38027100
H          -0.65146500      2.80446900     -0.07438500
H          -2.13302100      1.14385400     -1.17994000
H          -2.95730000      2.38666700     -0.21077500
H          -3.01154700      0.84326300      1.74176000
H          -2.17092500     -0.39739100      0.80682500
H          -4.27445100     -0.01565000     -0.91946400
H          -5.06618000      0.52999300      0.56097000
H          -4.41825900     -1.64391600      1.68094400
H          -3.71916100     -2.18848600      0.12817600
