14
b3lypvdz=-374.877654693515 
N          -0.91785900      1.41761500      0.76690500
N           1.96898500     -1.34494400     -0.29023100
N          -0.23791500     -0.77226100      0.50099700
N           0.45538900     -2.96985100      0.34844700
C           2.22636600     -0.03480200     -0.40039400
C           0.06009800      0.52843000      0.38124700
C           1.32058300      0.96478800     -0.07870000
C           0.73707600     -1.63919400      0.17059100
H          -1.84836100      1.01248900      0.81332100
H          -0.88166900      2.33863100      0.34466900
H           1.05669100     -3.61197700     -0.15450900
H          -0.52570000     -3.21524700      0.40599200
H           3.22189300      0.22864500     -0.77594500
H           1.56862300      2.02177900     -0.18429200
