19
b3lypvdz=-307.05593026447 
N          -0.73808400      1.55282800      0.23859300
N           1.07312000      3.13485700      0.27359300
C          -2.09039000      1.24848700     -0.20423300
C          -2.83261000      0.31980400      0.76262600
C          -4.28911500      0.04392400      0.33306900
C          -4.77186500     -1.37028400      0.67652700
C          -0.15812700      2.80095600      0.15702400
H          -0.09547400      0.76691100      0.29150000
H           1.66089300      2.29769300      0.41299100
H          -2.08323700      0.78798000     -1.21370200
H          -2.63479500      2.20285300     -0.30096100
H          -2.79659200      0.76434000      1.77201700
H          -2.27934600     -0.63609400      0.82942400
H          -4.38925100      0.20213700     -0.75721700
H          -4.95780800      0.78482300      0.80522600
H          -5.81881100     -1.52608500      0.36767700
H          -4.70788400     -1.56643800      1.76093800
H          -4.15786900     -2.13126400      0.16540500
H          -0.90055400      3.60077300     -0.00209700
