16
b3lypvdz=-321.884891804029 
N          -0.87657600      1.64697400      0.38386200
N          -0.20203600     -0.56678000      0.73308100
N           0.21235000     -2.84167500      0.56587200
C          -2.17885400      1.27366700     -0.14689300
C           0.18407600      0.73381600      0.37210100
C           1.46844400      1.11309000      0.14272600
C           0.38423900     -1.55245300      0.15736100
H          -0.57586700      2.57434000      0.09895300
H           0.43750500     -3.59606800     -0.06906800
H          -0.49710500     -3.02119400      1.26881800
H          -2.46476800      0.29937300      0.27330300
H          -2.21433000      1.19914800     -1.25540800
H          -2.92820400      2.01590000      0.17033100
H           1.71119300      2.13562200     -0.15340900
H           2.29612500      0.43860300      0.36050800
H           1.09250800     -1.42826300     -0.68263900
