12
b3lypvdz=-319.529720511445 
N          -1.07182100      1.39955000      0.09004500
N           2.02112700     -1.32839100      0.30447600
N          -0.31887100     -0.77781800      0.27452900
C           2.29815800     -0.02018700      0.14779900
C          -0.01450400      0.52458100      0.12431600
C           1.32492700      0.95972000      0.05242700
C           0.71706000     -1.61888700      0.35786300
H          -1.96707900      0.96668100     -0.11570900
H          -0.91687100      2.29243600     -0.36431000
H           3.35868500      0.25135400      0.09527900
H           1.58457900      2.01248900     -0.07570100
H           0.45810800     -2.67712700      0.47618700
