10
b3lypvdz=-189.199510174027 
C          -2.35501200      1.63219800     -0.01092500
N           1.22156400      2.46453200     -0.01104000
N          -0.93947100      1.44827100      0.26736700
C          -0.04709300      2.49731600      0.14789500
H          -2.92604800      0.77872700      0.38455100
H          -2.58906700      1.73498000     -1.08951900
H          -2.71786000      2.53508200      0.50464800
H           1.55028500      1.49030800     -0.10240300
H          -0.55730200      0.54113800      0.01034400
H          -0.53439700      3.48114700      0.25598400
