13
b3lypvdz=-228.491640362115 
N          -0.88448700      1.47750800      0.24050800
N          -0.38926600     -0.68867100     -0.46809300
C          -2.31272600      1.38570000     -0.02720400
C          -3.14836400      0.96265400      1.18517900
C          -0.02709700      0.41963100      0.06683400
H          -0.56705100      2.22432400      0.84575900
H           0.42182800     -1.30723000     -0.55425000
H          -2.43318300      0.65557800     -0.84003700
H          -2.65885800      2.36468900     -0.40277800
H          -4.22035100      0.94709400      0.92275000
H          -3.01893900      1.66349300      2.02817700
H          -2.85774100     -0.04333000      1.52674000
H           0.99593400      0.66135900      0.41361600
