20
b3lypvdz=-290.998624406098 
N          -0.92525900      1.76510100      0.35019600
C          -2.22631000      1.32205900     -0.16058300
C          -2.95227700      0.38399000      0.80958600
C          -4.34533800     -0.04365700      0.30587800
C           0.17012400      0.91547700      0.23956900
C           1.46092200      1.27477400      0.12299400
C          -4.75071300     -1.45462400      0.74854600
H          -0.70553400      2.72988100      0.11786100
H          -2.12857700      0.82369100     -1.14788800
H          -2.83859700      2.22337200     -0.32850400
H          -3.02500500      0.88463000      1.79024000
H          -2.32589600     -0.51150500      0.97463900
H          -4.37048300      0.00505100     -0.79950200
H          -5.10076500      0.68358300      0.65361500
H          -0.09534900     -0.14660700      0.30236600
H           1.76535800      2.32390900      0.05696000
H           2.24502500      0.51732600      0.11253400
H          -5.75291900     -1.72301100      0.37589100
H          -4.76298800     -1.54676400      1.84836900
H          -4.04171700     -2.20647400      0.36093300
