16
b3lypvdz=-213.650050495162 
N          -0.97765600      1.96756800      0.40529900
C          -2.26799000      1.52854300     -0.14190600
C          -2.89318700      0.44724400      0.74075000
C          -4.26324900     -0.04969500      0.24302300
C          -4.59049900     -1.48191000      0.68537900
H          -0.29035400      1.21797500      0.29054500
H          -0.61690300      2.74766500     -0.14831300
H          -2.20359700      1.14401200     -1.18650500
H          -2.94059500      2.40554500     -0.17198900
H          -2.97288200      0.84610500      1.76729400
H          -2.19205900     -0.40869800      0.79934600
H          -4.30123800      0.00584900     -0.86189300
H          -5.05367800      0.63372600      0.60445500
H          -5.57947000     -1.80376000      0.31798100
H          -4.59462400     -1.57382400      1.78615900
H          -3.84521900     -2.19834500      0.29727700
