14
b3lypvdz=-266.548661023726 
N          -0.82262900      1.60922300     -0.03908000
N          -0.68328800     -0.62802200      0.60078600
C          -2.27886800      1.65314200      0.07671100
C          -2.99542000      1.26356900     -1.19713100
C          -3.74834700      0.16796400     -1.32476200
C          -0.13095300      0.43598000      0.14971800
H          -0.36748100      2.31474800     -0.60524800
H           0.02288000     -1.35912400      0.72200400
H          -2.55302100      0.95990300      0.88343600
H          -2.56957700      2.67348200      0.38151700
H          -2.85371300      1.93131900     -2.05795300
H          -3.88416600     -0.52431300     -0.48817300
H          -4.24485700     -0.08573900     -2.26583300
H           0.94154300      0.54646700     -0.10159400
