13
b3lypvdz=-282.60615136557 
N           3.49760100      0.42201800      0.06319500
N           1.40555000      2.17054900      0.08790900
N           2.02984100     -1.36573300      0.28763700
C           4.67448900     -0.37900000      0.32855000
C           2.24124900     -0.09895700      0.15556300
C           1.14590200      0.92285100      0.08403100
H           3.54263300      1.43007400      0.17142200
H           0.54336700      2.72850100      0.05302600
H           1.01914500     -1.54541100      0.29285600
H           4.65579500     -1.28811700     -0.29074000
H           5.56996900      0.20791500      0.07500900
H           4.74359400     -0.70521800      1.38500500
H           0.12666500      0.49112800      0.05663800
