16
b3lypvdz=-376.010028062199 
N           3.23621000      0.44138600      0.08225500
N           1.13071300      2.24848600      0.05840800
N           1.82806800     -1.31712500      0.65871100
N           0.61017700     -3.28237300      0.49044400
C           1.94513800      0.03421800      0.33482300
C           0.88313400      0.91021700      0.28861400
C           0.16715800      3.09426200     -0.00405900
C           0.88695500     -2.00171100      0.11300300
H           3.95716100     -0.12967000      0.50830700
H           3.36823200      1.44836200      0.11569800
H           1.27531000     -3.73335200      1.11172600
H           0.10903600     -3.88242200     -0.15234900
H          -0.13126400      0.55037800      0.51201300
H          -0.89808100      2.80766600      0.09602500
H           0.39781000      4.15385900     -0.16758200
H           0.22184300     -1.60028100     -0.67163700
