7
b3lypvdz=-149.921797367243 
N           1.26025700      2.42768200      0.07803500
N          -0.97518400      1.53927000      0.10141600
C          -0.01171200      2.53282000      0.04892100
H           1.53827000      1.43344100      0.09304100
H          -1.89094400      1.76550500     -0.27304700
H          -0.66838800      0.59422900     -0.11411600
H          -0.44949900      3.54495300      0.02855000
