17
b3lypvdz=-305.82266082981 
N          -0.95709900      1.62005000     -0.21440800
N          -0.12678800     -0.51540400     -0.70167200
C          -2.33584100      1.15353200     -0.11622300
C          -2.83154500      0.88117100      1.30946400
C           0.11929100      0.74399700     -0.10115300
C           1.33325300      1.09235700      0.39402600
C           0.29541000     -1.56344300     -0.11399400
H          -0.78611800      2.50671600      0.25099300
H          -2.41418500      0.24259100     -0.72931400
H          -2.98039100      1.91017500     -0.59601600
H          -3.88174900      0.54122100      1.29385500
H          -2.78346000      1.79316400      1.93057300
H          -2.22845600      0.10354100      1.80580400
H           1.50851900      2.08870800      0.80494000
H           2.18996300      0.42854900      0.28657600
H           0.79799400     -1.54915300      0.87085400
H           0.15800000     -2.53437300     -0.60990500
