12
b3lypvdz=-265.379300739216 
N          -0.87421800      1.57951900      0.07109500
N           1.24230300      2.29343400     -0.05043400
C          -2.32755300      1.61285800      0.03300600
C          -0.06793400      0.46661400      0.22815800
C           1.22686300      0.93180000      0.15741600
C          -0.02917900      2.64394200     -0.09652100
H          -2.71537200      0.60975000      0.25668900
H          -2.69341300      1.91674900     -0.96147100
H          -2.72782900      2.31272400      0.78250700
H          -0.48402100     -0.52523500      0.38593700
H           2.14786600      0.35940400      0.25069100
H          -0.40521100      3.65524000     -0.24957200
