11
b3lypvdz=-227.276588774155 
N          -0.97035900      1.49187800      0.03840000
N          -0.53697500     -0.75286900      0.37238700
C           2.38513100      0.03414900      0.02386000
C          -0.07979800      0.43528500      0.19283100
C           1.35073200      0.86402100      0.18924700
H          -1.92454300      1.18609900     -0.13694800
H          -0.67051700      2.24112500     -0.57872000
H           0.23034800     -1.39607900      0.59430900
H           3.41407700      0.40073100      0.03532400
H           2.23583900     -1.03843600     -0.13589400
H           1.53606500      1.93539600      0.32820400
