12
b3lypvdz=-298.670697178872 
N           3.55587000      0.42460100      0.10468600
N           1.92916200     -1.21905300     -0.05667600
N          -0.48598400     -0.87931100     -0.03947600
N           0.47711300     -2.88401500      0.61257800
C           2.30688800     -0.06371400      0.35101800
C           0.57542000     -1.58230500      0.15170000
H           4.24063400     -0.22449300     -0.26933200
H           3.90616800      1.18777600      0.66924100
H          -0.23006600      0.04846200     -0.39064700
H           1.26917100     -3.47170700      0.37764300
H          -0.43258800     -3.31035700      0.47124800
H           1.64681100      0.63371700      0.89911800
