13
b3lypvdz=-195.195712861056 
C          -2.36126200      1.61779600      0.02163800
C          -3.11917600      0.73364400      1.05415100
C          -4.24538500      0.00394400      0.26548600
C          -2.90290200      1.15707000     -1.31311100
C          -3.91515700      0.29108100     -1.18200900
H          -1.26596600      1.48612600      0.09040800
H          -2.56372100      2.69561200      0.17318600
H          -3.52358800      1.33210300      1.88495600
H          -2.43103900     -0.00143500      1.50322100
H          -4.26069200     -1.08039000      0.47631800
H          -5.24877600      0.39111600      0.52430400
H          -2.51518200      1.52105200     -2.26901800
H          -4.46735500     -0.15041700     -2.01652900
