14
b3lypvdz=-266.555549836333 
N          -0.88135800      1.68926200      0.13003200
N          -0.61937100     -0.58662300      0.39299800
C          -2.32370900      1.54517800      0.10786500
C           2.34235700     -0.03864700     -0.04430300
C          -0.07689600      0.56717500      0.20407100
C           1.37970000      0.87818100      0.09393700
H          -0.49099300      2.49044300     -0.35090300
H           0.10781400     -1.29610100      0.52875600
H          -2.64948800      0.99273800      1.00229400
H          -2.68479100      0.97095000     -0.76571600
H          -2.78697100      2.54200300      0.10698200
H           3.39368700      0.24936600     -0.11213200
H           2.10940000     -1.10683900     -0.09832800
H           1.65792000      1.93801400      0.13094800
