14
b3lypvdz=-266.534316915575 
N           3.55370100      0.43989000     -0.08944000
N           1.87767500     -1.18358800     -0.35269700
C           4.51307500     -0.52920500      0.41808200
C           2.18787300      0.16727900     -0.05886100
C           1.23360400      1.11822800      0.08926900
C           0.95737900     -1.75350300      0.31830200
H           3.75641500      1.39643500      0.18527100
H           4.29517300     -1.51185900     -0.02327300
H           5.52581000     -0.23104200      0.10551100
H           4.50545900     -0.63683100      1.52338400
H           1.50754600      2.16202700      0.26004400
H           0.18401700      0.88134600     -0.08031000
H           0.42517200     -1.26299100      1.15423200
H           0.66240000     -2.77688600      0.04838600
