9
b3lypvdz=-117.810372533027 
C           5.35412500     -1.18336300     -0.82613700
C           6.04332500     -0.00629100     -0.17927800
C           4.69248800     -0.46049700      0.32194500
H           4.93309400     -1.04771900     -1.82624100
H           5.76171200     -2.18096000     -0.63962100
H           6.91638400     -0.20254400      0.44861100
H           6.09687700      0.92867300     -0.74318300
H           3.82625800      0.16931300      0.10296600
H           4.64483700     -0.97001100      1.28813800
