15
b3lypvdz=-250.482842258016 
N           3.64739200      0.56764800     -0.05447900
C           4.70608500     -0.32600200      0.33467200
C           5.28369400     -1.24276000     -0.72075100
C           6.07128000     -0.04554100     -0.24072000
C           2.33262000      0.10835700     -0.04854900
C           1.22874600      0.84076000      0.17148900
H           3.75273500      1.50028900      0.34127500
H           4.67550500     -0.72921700      1.35747100
H           4.83701200     -1.17793900     -1.71480500
H           5.61095500     -2.23745900     -0.41012400
H           6.94366800     -0.20942600      0.39476100
H           6.14415100      0.80379500     -0.92333900
H           2.25078300     -0.95352300     -0.30579800
H           1.27735100      1.90218400      0.43206400
H           0.24352200      0.38393400      0.07523300
