9
b3lypvdz=-171.927388472201 
C          -0.00988600      2.71684500      0.03928900
C           1.12727700      0.72786300      0.12360100
N           1.12240500      2.13027000      0.07181200
C           2.27650700      0.03911400      0.15181200
H          -0.97927300      2.17849600      0.04774200
H          -0.04234400      3.81338600     -0.00464800
H           0.15680800      0.19962200      0.14111500
H           3.23392300      0.56550500      0.13520000
H           2.28018200     -1.05239800      0.19297700
