16
b3lypvdz=-321.893589899424 
N          -0.96979100      1.56474200     -0.03569900
N           1.75075800     -1.67727200      0.54090100
N          -0.28139300     -0.64748700     -0.29943900
C          -2.40555500      1.28784500     -0.02064200
C          -2.97283600      1.04495400      1.38135500
C          -0.02103900      0.59042700     -0.06585500
C           0.76847600     -1.57254400     -0.27333600
H          -0.66682900      2.47226700      0.29851200
H           1.69707500     -0.93856500      1.26126900
H          -2.55824900      0.40013900     -0.65320800
H          -2.91663500      2.13724400     -0.50291400
H          -4.05740700      0.84745300      1.33008500
H          -2.81952000      1.91934500      2.03812800
H          -2.49273800      0.17169100      1.84961000
H           1.00787100      0.97670400      0.07100700
H           0.67831300     -2.34174200     -1.05777400
