7
b3lypvdz=-95.792411831546 
N           3.56690700      0.41947700      0.03486200
C           4.69211000     -0.46665100      0.34217800
H           2.69032700     -0.06278600      0.24982800
H           3.58723700      1.22477900      0.66534600
H           4.66643900     -1.33672000     -0.33456900
H           5.63653900      0.06879900      0.14511600
H           4.73884100     -0.85799900      1.38233800
