11
b3lypvdz=-173.141342721663 
N          -0.86342400      1.54374900      0.10205500
C          -2.32481600      1.68580200      0.04566600
C          -2.97911300      1.14625700     -1.20247600
C          -3.96066600      0.23983500     -1.23113800
H          -0.62121900      0.55977000     -0.04499900
H          -0.44374800      2.03995100     -0.68905000
H          -2.75711700      1.18873200      0.93098700
H          -2.55650800      2.76231900      0.15044400
H          -2.58415300      1.53994300     -2.15101200
H          -4.37826800     -0.17720800     -0.30792900
H          -4.38836800     -0.11735000     -2.17214800
