11
b3lypvdz=-173.132765831345 
C           5.34401100     -1.17995500     -0.81925200
N           3.58765100      0.40367800      0.01542700
C           6.05578000     -0.01200400     -0.17073800
C           4.70447600     -0.45195800      0.33678000
H           4.89379900     -1.01268100     -1.80160900
H           5.73682600     -2.18663000     -0.64751400
H           2.72042300     -0.13922900      0.04637900
H           3.48968700      1.12832400      0.73140100
H           6.93350500     -0.21555500      0.44894600
H           6.08519000      0.92820100     -0.72713700
H           4.70215100     -0.98889200      1.30011800
