11
b3lypvdz=-227.273338574045 
N          -0.25868600     -0.84572400      0.39759800
N           0.48323500     -3.04852200      0.48252600
C           0.04497100      0.48580600      0.10532700
C           1.21919700      1.10748000      0.32305600
C           0.59455400     -1.74897300      0.07962400
H           0.97735600     -3.76586600     -0.03103900
H          -0.37915900     -3.32174800      0.94173600
H          -0.80769100      1.05552500     -0.28625100
H           1.34783800      2.16284500      0.07291800
H           2.06393900      0.58651500      0.78235300
H           1.49814500     -1.53753600     -0.52384800
