14
b3lypvdz=-320.658700421621 
N           3.26484900      0.40049100     -0.01586900
N           1.13652400      2.21197100      0.07860900
N           1.87867000     -1.32591600      0.73226200
C           1.98778800      0.01067200      0.32155600
C           0.91567500      0.86820700      0.31500600
C           0.15216700      3.03160800      0.03094100
C           0.95682700     -2.06057200      0.24968900
H           4.00748400     -0.11578700      0.44582100
H           3.37912000      1.41247800     -0.01725800
H          -0.08337900      0.49263700      0.57617300
H          -0.90324900      2.71678500      0.14806700
H           0.34917400      4.09759300     -0.13397600
H           0.26208100     -1.72215900     -0.54047500
H           0.83756800     -3.08020700      0.64045300
