11
b3lypvdz=-227.265331003587 
N           3.51294300      0.53847100     -0.04587900
N           1.13180200      2.06481700      0.13164400
C           2.26673400     -0.02091200      0.14493500
C           1.10056400      0.67540500      0.18170900
C           0.03374500      2.72315000      0.12378000
H           4.28175200      0.07459100      0.42845900
H           3.51505700      1.54983800      0.07967900
H           2.24409100     -1.11266900      0.21564400
H           0.14117800      0.14254200      0.24893600
H          -0.96216300      2.23846900      0.14281800
H           0.06409600      3.81979800      0.10047500
