13
b3lypvdz=-282.602131037131 
N          -0.86271900      1.70694900      0.11728000
N           1.88293400     -1.56779400      0.28171200
N          -0.35850500     -0.54272400      0.24084400
C          -2.29442800      1.46702900      0.02469800
C           0.02762200      0.68504600      0.14837300
C           0.60372000     -1.57250700      0.31322800
H          -0.50898300      2.61403400     -0.16077100
H           2.25258900     -0.60872100      0.19211000
H          -2.58715100      0.73156200      0.78604200
H          -2.58532100      1.05509600     -0.95897500
H          -2.82861800      2.41127300      0.20002900
H           1.08154400      1.02159500      0.11091400
H           0.11821500     -2.55593700      0.41141600
