9
b3lypvdz=-226.099117246735 
N          -0.87233100      1.55295600      0.11401300
N           1.21590400      2.31206100      0.04572300
C          -0.05963700      0.43969100      0.15204800
C           1.22551300      0.93537500      0.10965300
C          -0.05827700      2.65074800      0.04851100
H          -1.88437000      1.55986500      0.13093700
H          -0.45874100     -0.56931100      0.20754200
H           2.15860000      0.37513100      0.12299400
H          -0.45116100      3.66538400      0.00567900
