13
b3lypvdz=-282.605524920094 
N           3.57943000      0.45887400      0.27943400
N           1.97695000     -1.21407500      0.42744800
N          -0.35996900     -1.03442700     -0.20567000
C           4.69025900     -0.47170300      0.17725800
C           2.30159800      0.03282900      0.44095700
C           0.61629800     -1.54361600      0.44772000
H           3.78094100      1.41515500      0.54215600
H          -0.01045000     -0.27501700     -0.81254800
H           4.45235000     -1.24508700     -0.56606400
H           5.59032600      0.07457400     -0.13979400
H           4.89375700     -0.98533700      1.13538500
H           1.56833500      0.84848200      0.58596400
H           0.39557500     -2.40685300      1.09665400
