14
b3lypvdz=-266.546574233024 
N          -0.96219800      1.81213300      0.30544500
N           2.02319300     -1.48052400      0.11735800
C          -2.37254400      1.58530400      0.04198200
C           2.23218900     -0.21339900      0.08270200
C          -0.04818400      0.79584600      0.22402800
C           1.29783900      0.91694600      0.09736200
H          -0.61273000      2.73593200      0.06890800
H           1.01204200     -1.68223000      0.16309300
H          -2.72700800      0.72418100      0.63014500
H          -2.59772000      1.38965600     -1.02580900
H          -2.95113900      2.46447900      0.36217000
H           3.29348000      0.08745000      0.02515500
H          -0.49571600     -0.20107000      0.31889900
H           1.73899500      1.91599700      0.00556200
