11
b3lypvdz=-173.143929707646 
C          -0.04276600      0.74759800      0.28572100
C           1.27758100      0.83653500      0.05355100
N          -0.95439200      1.79356800      0.35181900
C          -2.33573900      1.54439500     -0.03035300
H          -0.49610800     -0.22706400      0.50398800
H           1.76513300      1.79067400     -0.16834200
H           1.90360900     -0.05399900      0.11198600
H          -0.58711600      2.67107900     -0.00949000
H          -2.74459500      0.71886200      0.57417400
H          -2.47007800      1.27745200     -1.09968600
H          -2.94412800      2.43740100      0.18043200
