11
b3lypvdz=-227.268089506515 
N          -1.05860100      1.64376200      0.13313000
N           2.14925500     -1.44968500      0.28969400
C           2.27175400     -0.18089800      0.14627100
C          -0.07524500      0.67584500      0.10112500
C           1.26280400      0.88435800      0.08282400
H          -1.95373300      1.38006800     -0.26632600
H          -0.77300900      2.58033900     -0.14018500
H           1.15469900     -1.70988400      0.38745000
H           3.30883300      0.18517000      0.04145000
H          -0.46865800     -0.34629300      0.15732200
H           1.64430100      1.90881800      0.00234500
