16
b3lypvdz=-267.776902460969 
N          -0.90452200      1.51623300      0.32862800
N          -0.08482900     -0.60776000     -0.15348700
C          -2.25671300      1.21912700     -0.13596500
C          -3.12227900      0.53686200      0.93231000
C          -4.54606000      0.25613200      0.44182900
C           0.11551700      0.60700100      0.20922400
H          -0.63504300      2.48685800      0.41684400
H           0.80606700     -1.11171700     -0.16335800
H          -2.18792500      0.56535500     -1.02221500
H          -2.72001100      2.16980500     -0.45021400
H          -3.15256300      1.17758900      1.83189300
H          -2.62337300     -0.40142600      1.22540400
H          -4.54985300     -0.40979100     -0.43826000
H          -5.15119100     -0.22907600      1.22485600
H          -5.06398400      1.18728500      0.15030600
H           1.09646200      1.04232100      0.48080400
