15
b3lypvdz=-337.9492123643 
N          -0.86712300      1.64648700      0.13829400
N           2.04653000     -1.44996600      0.24103600
N          -0.26790100     -0.58879000      0.23122600
N           0.20710000     -2.81949100      0.50143400
C          -2.28753700      1.36744700      0.01129000
C           0.05880300      0.65308200      0.16440500
C           0.76736500     -1.56409200      0.30413400
H          -0.53703200      2.56825500     -0.11924500
H           2.32817500     -0.46769600      0.17120800
H           0.84109900     -3.58168800      0.28154400
H          -0.72816300     -2.91950400      0.12070100
H          -2.57422500      0.60571000      0.74898300
H          -2.55072000      0.97586200     -0.98900000
H          -2.85316300      2.29066700      0.20142700
H           1.10049200      1.02581800      0.15346300
