8
b3lypvdz=-79.764172840718 
C          -2.36706700      1.60833800      0.03006200
C          -3.11823300      0.74566200      1.04883800
H          -1.33543100      1.81302700      0.36355600
H          -2.30949400      1.10816900     -0.95160200
H          -2.86737700      2.57988500     -0.11912400
H          -4.14987000      0.54097200      0.71534400
H          -3.17580600      1.24583100      2.03050200
H          -2.61792200     -0.22588400      1.19802500
