16
b3lypvdz=-321.890541939795 
N           3.69213900      0.49365100      0.09962200
N          -1.00467100      1.48241400     -0.09754900
N          -0.53878700     -0.72257300      0.40800200
C           4.74061600     -0.49950100      0.24583400
C           2.36651900      0.13323800      0.10647500
C          -0.09021900      0.47162000      0.20887400
C           1.30523600      0.94801700      0.30636200
H           3.89683300      1.40016400      0.50926400
H          -1.91904400      1.10367800     -0.33666200
H          -0.67667000      2.15995700     -0.78180200
H           0.21039200     -1.31931100      0.77450800
H           4.56334300     -1.33187300     -0.45345400
H           5.70957700     -0.04684200     -0.01382500
H           4.81625200     -0.92459900      1.26733900
H           2.19094700     -0.92031600     -0.14073200
H           1.46253800      2.01357500      0.50994300
