14
b3lypvdz=-266.53391582076 
N          -0.86781800      1.58945600      0.39908500
N          -0.26549900     -0.62645700     -0.09423900
C          -2.24787000      1.33534000      0.00348600
C           0.15678300      0.71783000      0.03398100
C           1.43306300      1.09891300     -0.20952600
C           0.36343600     -1.52731900      0.54817300
H          -0.59484400      2.56122700      0.28262300
H          -2.54920200      0.32772100      0.31918600
H          -2.42383100      1.41213200     -1.08915600
H          -2.89815600      2.06113400      0.51410600
H           1.71400300      2.15416200     -0.21933400
H           2.19373400      0.36003100     -0.45416200
H           1.19779500     -1.30761800      1.23971400
H           0.07210600     -2.57785300      0.40376300
