5
b3lypvdz=-40.480438952292 
C           4.69433200     -0.45970400      0.32095300
H           3.90066100      0.29267000      0.20355200
H           4.67362600     -1.15422900     -0.53191300
H           5.67083500      0.04638800      0.36119500
H           4.53354600     -1.02352400      1.25261400
