13
b3lypvdz=-282.612335157079 
N           3.59575200      0.37609300      0.35697100
N          -1.06245000      1.60094900     -0.00048700
N           2.14185400     -1.40891200      0.21317800
C           2.30416200     -0.12950100      0.18708700
C          -0.03785700      0.68607100      0.12170300
C           1.28160800      0.91222100     -0.05664100
H           4.23732400     -0.33851900      0.69479900
H           3.65349300      1.23619900      0.89658900
H          -1.98200100      1.22155200     -0.19748100
H          -0.86136600      2.44423300     -0.52981300
H           1.18863000     -1.64862200     -0.07751100
H          -0.36587700     -0.29871000      0.47175000
H           1.63022800      1.90174800     -0.37354500
