8
b3lypvdz=-187.972974881367 
C          -0.19934500      0.48424700      0.22404800
C           0.83319200     -1.59211000      0.33161800
N           2.09155700     -1.51798100      0.14206000
N          -0.16889500     -0.72983700     -0.15396400
H          -0.95300100      1.15933200     -0.20518000
H           0.50122000      0.90931900      0.96831300
H           0.42263100     -2.47077400      0.85512300
H           2.31244100     -0.66229600     -0.39181800
