18
b3lypvdz=-289.803095554188 
N          -0.90703700      1.51193400      0.15082900
C          -2.36725200      1.63935100     -0.00097500
C          -3.11972400      0.74468900      1.02673200
C          -4.24087000     -0.01018100      0.25831800
C          -2.93571100      1.18146000     -1.33201500
C          -3.91937500      0.28659200     -1.19198100
C          -4.32635700     -1.51007700      0.57038700
H          -0.62629500      0.58843100     -0.19655600
H          -0.44107300      2.17435800     -0.47590600
H          -2.59827200      2.70766400      0.16891500
H          -3.51475400      1.33339100      1.86809300
H          -2.39518900      0.03048500      1.45411700
H          -5.22353600      0.43815600      0.50434200
H          -2.55062300      1.56397000     -2.28237100
H          -4.46664800     -0.18955400     -2.01146500
H          -5.11809000     -2.00009100     -0.02002300
H          -4.54923100     -1.68582600      1.63600400
H          -3.37326300     -2.01465300      0.33295500
