8
b3lypvdz=-133.866045563364 
C           0.00407200      0.61361900      0.14054000
C           1.31940400      0.88242600      0.10548800
N          -1.03962500      1.53847100      0.12249000
H          -0.33873000     -0.42085000      0.26182400
H           1.69753600      1.90265500     -0.01408500
H           2.04890100      0.07987300      0.21600600
H          -1.89041600      1.20808200     -0.32358600
H          -0.78214200      2.46112300     -0.22087800
