20
b3lypvdz=-236.90472019248 
C          -0.40112600      0.81089100      0.44338400
C           0.54661700     -0.34363300      0.06327400
C          -1.71954100      0.70375700     -0.33463700
C           1.92159800     -0.34141600      0.74123300
C           0.22537000      2.20010100      0.25752200
C           2.68838100     -1.65060500      0.53221200
H          -0.63762000      0.69511600      1.52022200
H           0.03415100     -1.29225800      0.31561700
H           0.68421800     -0.36079600     -1.03637100
H          -2.17542100     -0.29547700     -0.22755800
H          -2.45552700      1.44674300      0.01507700
H          -1.55575000      0.88297000     -1.41330000
H           1.79695300     -0.16343800      1.82652900
H           2.52582900      0.50296000      0.36377300
H           1.10130000      2.35124400      0.90751700
H           0.55212800      2.35552200     -0.78721800
H          -0.50466700      2.99105000      0.49985100
H           2.86684400     -1.84787200     -0.53931300
H           3.66721400     -1.63292700      1.03780000
H           2.12354900     -2.50973200      0.93448700
