23
b3lypvdz=-276.188348227887 
C          -0.32520800      0.84343300      0.27651200
C           0.46820800     -0.46726600      0.18535900
C          -1.73936800      0.73613800     -0.29635600
C           1.83031400     -0.44020100      0.91227900
C           1.63935600     -0.53032500      2.43268700
C           2.77426000     -1.55759500      0.42073100
C           3.36098200     -1.32683100     -0.97430000
H           0.23368200      1.63706800     -0.25217300
H          -0.38831700      1.17114500      1.32916600
H          -0.13717300     -1.29101200      0.61051600
H           0.61012100     -0.72057600     -0.88043800
H          -2.32774700     -0.02757700      0.23912100
H          -2.28372500      1.69134100     -0.21148600
H          -1.72642800      0.44914000     -1.36227500
H           2.31895400      0.52866900      0.68546100
H           1.17621100     -1.49452600      2.71145700
H           2.60001400     -0.45672700      2.96720000
H           0.98307600      0.26574600      2.81799400
H           3.60688800     -1.66153800      1.13920200
H           2.23293700     -2.52259800      0.44998300
H           3.94219600     -0.38887400     -1.00827800
H           4.04241100     -2.14389200     -1.26267500
H           2.58165600     -1.25914100     -1.75138700
