15
b3lypvdz=-233.519540363108 
C          -2.58011400     -0.50892000     -0.01175600
C          -3.74216500     -0.28197800     -0.98431900
C          -3.06434500     -0.51715900      1.44506900
C          -1.82125300     -1.80006800     -0.35046900
O          -4.58748600     -1.42852200     -0.95065600
H          -1.89442500      0.34919000     -0.14995300
H          -4.29871400      0.63162100     -0.68892800
H          -3.33971600     -0.10748100     -2.00404200
H          -3.51876500      0.44881400      1.72554100
H          -3.82819200     -1.29710200      1.59224100
H          -2.23012600     -0.71423600      2.13797500
H          -0.95886500     -1.94083200      0.31994200
H          -2.48849000     -2.66939300     -0.24628600
H          -1.44392600     -1.78747300     -1.38717600
H          -5.34561900     -1.25976200     -1.52708400
