23
b3lypvdz=-276.187202339044 
C          -0.54121900      0.69843100      0.37665600
C           0.40502600     -0.49234100      0.11767600
C          -1.85471200      0.68374200     -0.41651500
C           1.74996600     -0.32137800      0.86052600
C           1.68648900     -0.36260900      2.39388700
C          -0.24515000     -1.85860400      0.39802600
C          -2.64478800      1.99107900     -0.27140600
H           0.00740100      1.62714200      0.12774500
H          -0.78332400      0.76353900      1.45454500
H           0.65025500     -0.47132500     -0.96271200
H          -2.48763600     -0.15757900     -0.08268700
H          -1.63462400      0.50737700     -1.48648800
H           2.44330900     -1.10957700      0.51286800
H           2.20275700      0.63757100      0.54714700
H           1.29172600     -1.32366200      2.76446400
H           2.69362700     -0.23411100      2.82370700
H           1.05315400      0.43948000      2.80599100
H          -1.06964200     -2.06291600     -0.30331700
H           0.49020400     -2.67378600      0.28123100
H          -0.65740700     -1.91946000      1.42030700
H          -3.58242500      1.95972600     -0.84977700
H          -2.90650200      2.18565200      0.78323000
H          -2.05638500      2.85201000     -0.63440400
