21
b3lypvdz=-274.961786610943 
C          -0.56297500      0.79100500      0.49002800
C           0.38071200     -0.36694900      0.13161900
C           1.77728000     -0.29174600      0.82237900
C           1.72321800     -0.36667600      2.35981400
C          -0.29932200     -1.72485000      0.36813800
C           3.60472900      0.92302300     -0.43032100
C           2.55219000      0.93110900      0.39342000
H          -1.49894000      0.71328700     -0.08688800
H          -0.11494700      1.77072100      0.25675400
H          -0.83664100      0.78920600      1.55937300
H           0.58728100     -0.29168600     -0.95222900
H           2.34011500     -1.17196000      0.45876800
H           1.24065100     -1.29196800      2.71299100
H           2.74163000     -0.33916700      2.77924700
H           1.16868300      0.48239700      2.79280200
H          -1.19677000     -1.82448500     -0.26434100
H           0.37784100     -2.56094900      0.12220500
H          -0.62228300     -1.84951300      1.41601400
H           3.98264900     -0.00932800     -0.86449200
H           4.12726300      1.84363800     -0.70551000
H           2.21323700      1.88889000      0.81272900
