17
b3lypvdz=-197.617729866183 
C           0.48128000     -0.40571000      0.16443100
C           1.84033000     -0.40540100      0.88600100
C          -0.31153600     -1.71301000      0.27839400
C           2.81888100     -1.52777700      0.50371800
C           3.25669900     -1.52145900     -0.96413300
H          -0.12285600      0.42064900      0.58039000
H           0.62297400     -0.16089500     -0.90408800
H           1.66309500     -0.45142700      1.97684800
H           2.33399700      0.56773000      0.69754200
H          -1.30659400     -1.61273300     -0.18512400
H           0.19960600     -2.54817300     -0.22869200
H          -0.46064000     -2.00932900      1.33179000
H           3.71179000     -1.44187800      1.14807200
H           2.36731900     -2.50718000      0.74898100
H           3.71471600     -0.55476500     -1.23996400
H           4.00206700     -2.30835800     -1.16609400
H           2.40857200     -1.69148400     -1.64817200
