20
b3lypvdz=-236.902102513563 
C           0.51924600     -0.41721900      0.17236900
C           1.87345500     -0.40392700      0.92037600
C           1.68937700     -0.40795500      2.44520500
C          -0.28895600     -1.71919900      0.24742700
C           2.83945900     -1.52635700      0.49169800
C           3.21234500     -1.54100500     -0.99355300
H          -0.09468700      0.40918100      0.57446400
H           0.69147500     -0.16738700     -0.88936900
H           2.35762600      0.55556200      0.64779200
H           1.30554300     -1.37709200      2.81044300
H           2.64577100     -0.22047700      2.96117400
H           0.97605300      0.36769100      2.76964400
H          -1.25138500     -1.60462600     -0.27747300
H           0.24095100     -2.56078200     -0.22900600
H          -0.51387000     -2.01578000      1.28563300
H           3.76100800     -1.43257100      1.09370200
H           2.40130900     -2.50344400      0.77130600
H           3.64782200     -0.57605600     -1.30808000
H           3.95762200     -2.32368700     -1.21126900
H           2.33953500     -1.73466900     -1.63848300
