9
b3lypvdz=-154.948513926665 
O          -4.82955700     -1.14675200     -0.71055100
C          -3.73839000     -0.28721200     -1.02424800
C          -4.08071400      1.18948200     -0.84587100
H          -5.55319400     -0.91936800     -1.31328100
H          -2.93191900     -0.57755100     -0.33135600
H          -3.36646400     -0.47498700     -2.05390000
H          -3.20418900      1.83301100     -1.03574200
H          -4.88068300      1.49580200     -1.54395300
H          -4.44298900      1.37887400      0.17880000
