9
b3lypvdz=-154.94783615968 
O          -4.78038700     -1.20462200     -0.72732300
C          -2.60175300     -0.54312800     -0.04740600
C          -3.73079300     -0.28450000     -1.02490500
H          -5.50997900     -1.01836200     -1.33503000
H          -1.75629100      0.13875800     -0.23489800
H          -2.95113400     -0.39820600      0.98913600
H          -2.24255000     -1.58172400     -0.14015500
H          -4.08451000      0.76457200     -0.92359100
H          -3.36810300     -0.42088900     -2.06642700
