23
b3lypvdz=-276.187684766744 
C          -0.40850800      0.75521000      0.42164300
C           0.50466900     -0.45788600      0.17909600
C          -1.71381800      0.59127300     -0.38731500
C           0.29481500      2.09853400      0.12874700
C          -2.73042200      1.73900200     -0.26560400
C           1.65813700      2.29316500      0.80930000
C          -4.11618300      1.37550400     -0.81633600
H          -0.68631400      0.75316000      1.49523600
H           1.36909100     -0.47302400      0.86131000
H          -0.05213400     -1.39806100      0.33534500
H           0.89164100     -0.46620400     -0.85569500
H          -2.19960700     -0.34715100     -0.06050000
H          -1.45709500      0.44568800     -1.45536000
H           0.41909100      2.21024800     -0.96667600
H          -0.37013600      2.92057500      0.44657900
H          -2.83235100      2.03104000      0.79686600
H          -2.35173900      2.62924300     -0.79718100
H           2.42069400      1.60221700      0.41538200
H           2.03082400      3.31804000      0.64239700
H           1.59222700      2.13568500      1.90084300
H          -4.54927100      0.52132300     -0.26839900
H          -4.06503100      1.09351800     -1.88322800
H          -4.81687900      2.22310200     -0.72455100
