20
b3lypvdz=-236.903190827588 
C          -0.33693900      0.83464600      0.34140700
C           0.45963300     -0.46753200      0.23039200
C           1.83665300     -0.43312000      0.92634100
C           1.68959700     -0.48793300      2.45225100
C           2.76320200     -1.56014000      0.42603000
C           3.29809700     -1.35925500     -0.99450700
H          -1.29563600      0.76402500     -0.19685900
H           0.22523700      1.67783700     -0.09595700
H          -0.56432400      1.09860000      1.38720400
H          -0.12739200     -1.30205100      0.65861200
H           0.59113100     -0.71126800     -0.83791200
H           2.32139300      0.52916800      0.66271000
H           1.20874200     -1.43211000      2.76724500
H           2.66890200     -0.43190900      2.95433100
H           1.06926200      0.33439600      2.84208700
H           3.62131300     -1.64688500      1.11605100
H           2.22418000     -2.52471500      0.49683000
H           3.86595400     -0.41536000     -1.07209400
H           3.97964500     -2.17442700     -1.28725100
H           2.49244900     -1.31976800     -1.74630900
