23
b3lypvdz=-276.186935245177 
C           0.43629100     -0.38929000      0.20648300
C           1.82699900     -0.39332900      0.85938300
C          -2.68801900     -0.62550000     -0.08010200
C           1.80281200     -0.48038700      2.38886800
C          -3.13870100     -0.52028200      1.38060100
C          -0.34817800     -1.69730300      0.38647300
C          -1.69065600     -1.76171900     -0.36298100
H          -0.14436800      0.45396500      0.62391300
H           0.54605000     -0.17709200     -0.87354200
H           2.42160000     -1.23216500      0.45059800
H           2.36248400      0.52563900      0.56045200
H          -2.25030600      0.33819100     -0.39933200
H          -3.57314000     -0.77832800     -0.72283900
H           1.39778500     -1.44248000      2.74470700
H           2.81512400     -0.37432300      2.81139400
H           1.17569200      0.31676500      2.82552900
H          -3.89676200      0.26956000      1.51240700
H          -3.58332100     -1.46833200      1.73148900
H          -2.29881000     -0.28136900      2.05355300
H           0.27940700     -2.53734600      0.03245900
H          -0.51761900     -1.88328300      1.46180300
H          -2.17818000     -2.72401200     -0.11484600
H          -1.49208600     -1.79228200     -1.45046800
