23
b3lypvdz=-276.188244210183 
C          -0.39052800      0.81186400      0.45722900
C           0.50959100     -0.41324100      0.18587400
C          -1.69347900      0.77679100     -0.37135800
C           1.87191800     -0.40447700      0.89589400
C          -2.60151100     -0.44717700     -0.17575600
C          -3.89799100     -0.36019300     -0.99238500
C           0.33846200      2.14354500      0.20455500
H          -0.67550100      0.78511200      1.52856000
H          -0.03251700     -1.32331200      0.49620500
H           0.67294400     -0.50772300     -0.90548400
H          -2.27885200      1.68301500     -0.12609500
H          -1.43205300      0.86484800     -1.44478700
H           1.75959700     -0.25259200      1.98419100
H           2.39360700     -1.36506800      0.74547100
H           2.53517100      0.38741200      0.51139900
H          -2.85287600     -0.55020300      0.89691800
H          -2.06313800     -1.36733800     -0.46244000
H          -4.48448200      0.53569100     -0.72113400
H          -4.54021500     -1.24104800     -0.82302000
H          -3.68129900     -0.30386200     -2.07387700
H           1.19179600      2.28628200      0.88563300
H           0.72001200      2.19734100     -0.83118600
H          -0.34505300      2.99693300      0.35429200
