23
b3lypvdz=-276.18488144484 
C          -0.41909300      0.79452500      0.42779500
C           0.46173700     -0.42707100      0.03594200
C          -1.79128200      0.79845100     -0.26733100
C           1.83208600     -0.37878500      0.75376600
C           0.28559600      2.13989800      0.18244400
C          -0.26670200     -1.75933400      0.28274900
C           2.73234700     -1.60874400      0.58922100
H          -0.60382900      0.71312000      1.51854200
H           0.65788100     -0.35576200     -1.05406800
H          -2.41608300     -0.06014500      0.02154200
H          -2.35197400      1.71084100     -0.00283900
H          -1.68580300      0.78258800     -1.36747900
H           1.66327400     -0.20294900      1.83405500
H           2.38555600      0.50233800      0.38978900
H           1.18568100      2.26673100      0.80176600
H           0.59008400      2.24451000     -0.87518300
H          -0.39279700      2.97746600      0.41607900
H          -1.19131700     -1.83492400     -0.30809400
H           0.36347100     -2.61687800      0.00140400
H          -0.53881900     -1.87857800      1.34751100
H           2.87910700     -1.87122600     -0.47326700
H           3.72691000     -1.41856100      1.02486700
H           2.32226700     -2.49701400      1.09528800
