23
b3lypvdz=-276.188963759061 
C          -0.40977400      0.82226200      0.44436500
C           0.54985000     -0.31340000      0.03548100
C          -1.73909300      0.70797200     -0.31354200
C           1.89758300     -0.33641600      0.76627700
C           0.19622000      2.22122000      0.26163700
C           2.75556400     -1.58045600      0.48315100
C           3.37254300     -1.61977600     -0.91924200
H          -0.62867600      0.69212600      1.52331000
H           0.03399700     -1.27392900      0.23113200
H           0.71110900     -0.27433800     -1.05895700
H          -2.18523200     -0.29525500     -0.20391700
H          -2.47509400      1.44329700      0.05199000
H          -1.59529900      0.89450600     -1.39374000
H           1.70927000     -0.27352800      1.85450200
H           2.48493200      0.56422400      0.50563900
H           1.07689600      2.38190200      0.90261700
H           0.51003800      2.38559800     -0.78582200
H          -0.54157700      3.00151800      0.51432400
H           3.56945300     -1.63091300      1.22832200
H           2.14120400     -2.48657500      0.64921800
H           4.01360900     -0.73733500     -1.09444400
H           4.00362500     -2.51361500     -1.05847500
H           2.60615500     -1.63099000     -1.71222500
