20
b3lypvdz=-236.906083665064 
C          -0.43795300      0.72717800      0.29240200
C           0.53520200     -0.44783300      0.13489400
C          -1.79659100      0.49939600     -0.37877200
C           1.85525300     -0.26237900      0.88597500
C          -2.76930300      1.67439500     -0.22243600
C          -4.14412300      1.42751800     -0.84833800
H           0.02587500      1.64396000     -0.11951200
H          -0.59492400      0.93047200      1.36995200
H           0.04172500     -1.37409200      0.48467900
H           0.74228800     -0.60609600     -0.94037600
H          -2.25997700     -0.41316400      0.04292000
H          -1.64390300      0.28711200     -1.45504000
H           1.69469300     -0.20593700      1.97697000
H           2.55104700     -1.09629200      0.69491900
H           2.36483900      0.66803000      0.57926300
H          -2.89146100      1.89925700      0.85401700
H          -2.31813500      2.58132700     -0.66668900
H          -4.62309200      0.53189500     -0.41647400
H          -4.07374600      1.26609600     -1.93846500
H          -4.82391500      2.27955700     -0.68059100
