15
b3lypvdz=-196.39304662517 
C          -0.51937000      0.85084400      0.50964000
C           0.26978500      2.13522900      0.22325600
C           1.71882800      2.13999900      0.76001800
C           3.63405000      1.01713700     -0.44060400
C           2.55155700      0.95653500      0.34199200
H          -0.09254600     -0.01523800     -0.02244700
H          -1.56665900      0.95456500      0.17968500
H          -0.52864700      0.61287300      1.58863100
H           0.28918000      2.31083500     -0.86819600
H          -0.26489500      2.99479100      0.66667900
H           2.21837400      3.07088000      0.43967100
H           1.68224500      2.16805900      1.86783200
H           4.19893400      0.11692600     -0.70161000
H           3.99794100      1.96890000     -0.84297200
H           2.23612300     -0.02203500      0.72672400
