18
b3lypvdz=-272.80214712303 
C          -0.39076300      0.79217700      0.40020400
C           0.47073300     -0.47040000      0.32586100
C          -1.64182700      0.78396400     -0.49143000
C          -2.58284700     -0.40485200     -0.27086700
C          -3.93189300     -0.23960900     -0.96004900
O          -4.65962400     -1.44402700     -0.77143800
H           0.22486500      1.66732300      0.12638200
H          -0.70282100      0.95737100      1.44853200
H           1.37658300     -0.36722200      0.94457300
H          -0.07236400     -1.35869100      0.68756000
H           0.79806300     -0.68146800     -0.70710400
H          -2.19706300      1.72329900     -0.30990200
H          -1.33529300      0.81525100     -1.55465800
H          -2.76877200     -0.55805500      0.80780000
H          -2.12622300     -1.33682500     -0.64459300
H          -4.46385800      0.63198500     -0.52423300
H          -3.78095500     -0.01274400     -2.03751700
H          -5.51814100     -1.35177700     -1.20812000
