17
b3lypvdz=-197.619802308139 
C          -0.39739000      0.85943400      0.47959900
C           0.41869000     -0.38602700      0.10215000
C           1.77051300     -0.40367300      0.83292600
C          -0.33947300     -1.70653500      0.34899300
C          -1.71059800     -1.82221700     -0.33043700
H          -1.30316900      0.95948700     -0.13911100
H           0.20135500      1.77502500      0.33378200
H          -0.71258300      0.83056000      1.53867300
H           0.62895400     -0.32396900     -0.98475400
H           1.63095300     -0.47042300      1.92740400
H           2.38245600     -1.26710800      0.52094300
H           2.35143500      0.51099900      0.62425200
H           0.30053900     -2.53926300      0.00308300
H          -0.46496200     -1.85084800      1.44000800
H          -2.43858100     -1.10743000      0.08678600
H          -2.13080500     -2.83249100     -0.18956200
H          -1.63993500     -1.63722200     -1.41703600
