13
b3lypvdz=-232.317458755671 
C           1.80152400     -0.42000400      0.85456400
O           5.26591400     -0.15635200     -1.75234600
C           2.76609000     -1.54351500      0.45951400
C           3.36448600     -1.41014800     -0.95403400
C           4.19732600     -0.16726300     -1.18571400
H           1.00393000     -0.28847200      0.10319800
H           1.31353600     -0.64241900      1.81705300
H           2.31529800      0.54875900      0.96399600
H           3.58618000     -1.61053600      1.19681200
H           2.23464000     -2.50934300      0.51170200
H           3.99229900     -2.27689900     -1.21689700
H           2.53768600     -1.37461300     -1.69190100
H           3.75009000      0.78940500     -0.80544600
