14
b3lypvdz=-158.335494150059 
C          -0.40706100      0.79598300      0.52209600
C          -1.66911400      0.81784800     -0.34801000
C          -2.57525000     -0.40324900     -0.13893000
C          -3.83337200     -0.38493600     -1.01475700
H           0.20400500     -0.10028800      0.31579200
H           0.22612300      1.67972000      0.33589300
H          -0.66582600      0.78656800      1.59553600
H          -2.24617900      1.73721900     -0.13432400
H          -1.37637200      0.87575100     -1.41347500
H          -2.87253600     -0.45797200      0.92543700
H          -1.99676200     -1.32294000     -0.34728100
H          -4.44518200      0.51242100     -0.81545900
H          -4.46768400     -1.26764300     -0.82753500
H          -3.56949300     -0.38048300     -2.08698200
