20
b3lypvdz=-236.90269520138 
C          -0.48700800      0.91023800      0.35902500
C          -1.80947700      0.68808500     -0.39167500
C          -2.57896100     -0.59546700      0.02318200
C          -2.99907300     -0.62171200      1.50303800
C          -2.69879700      1.94104300     -0.31331700
C          -1.81460800     -1.88157500     -0.33638200
H           0.20095100      0.05657500      0.24269800
H           0.02966800      1.80087200     -0.03695200
H          -0.64799000      1.07698200      1.43878600
H          -1.55104200      0.55391700     -1.46167200
H          -3.50583600     -0.59427500     -0.58112300
H          -3.59428900      0.26217800      1.78448300
H          -3.61792700     -1.51073900      1.71411300
H          -2.12315000     -0.66733100      2.17249700
H          -3.64159200      1.79643000     -0.86736100
H          -2.95732600      2.20332800      0.72730100
H          -2.18347300      2.81132500     -0.75352300
H          -0.91967100     -2.01712900      0.29353100
H          -2.45598900     -2.76775400     -0.18949500
H          -1.48871100     -1.87649000     -1.39115400
