23
b3lypvdz=-276.187783527156 
C          -0.51181800      0.67248400      0.29303100
C           0.40923800     -0.52901300      0.00043900
C          -1.90441300      0.65984400     -0.34706200
C           1.71434500     -0.36108700      0.80554200
C          -0.27236600     -1.88143200      0.25901200
C          -2.62528500      2.00253100     -0.19086700
C           2.79117700     -1.42642600      0.58260900
H           0.01797700      1.58753100     -0.03467400
H          -0.62888900      0.77453200      1.39019200
H           0.67289900     -0.49482300     -1.07642900
H          -2.51877500     -0.13856600      0.10591500
H          -1.82248500      0.40805400     -1.42141800
H           1.45846100     -0.32461700      1.88218600
H           2.13676500      0.63208600      0.56429800
H          -1.16058200     -2.01232600     -0.37854800
H           0.40752600     -2.72013600      0.04008700
H          -0.59892900     -1.97769200      1.31078600
H          -3.63024200      1.98200200     -0.64218100
H          -2.73921100      2.27457500      0.87325500
H          -2.05845700      2.81488500     -0.67792600
H           3.07038500     -1.50779000     -0.48244800
H           3.70526100     -1.18038000      1.14723100
H           2.46131800     -2.42423700      0.91527200
