20
b3lypvdz=-236.902190734422 
C          -0.41452700      0.82058600      0.45111600
C           0.45273600     -0.41446500      0.12975500
C           1.81338500     -0.43996800      0.86008300
C           1.75094500     -0.42502800      2.39342500
C           0.26351700      2.17690500      0.21240100
C          -0.34677200     -1.70830300      0.35998600
H          -1.32587500      0.76509400     -0.17113400
H          -0.76512300      0.76817500      1.49908900
H           0.68460300     -0.36966100     -0.95290000
H           2.36123000     -1.34259600      0.53201500
H           2.42597400      0.41334100      0.51916700
H           1.20335000     -1.29324700      2.79493500
H           2.76679800     -0.45235000      2.82032700
H           1.25944600      0.48443900      2.77739200
H           1.09406600      2.35339800      0.91441000
H           0.67029800      2.24804500     -0.81186600
H          -0.45772100      3.00083100      0.34597600
H          -1.24733900     -1.73318100     -0.27565000
H           0.25834700     -2.59909500      0.11778500
H          -0.68263800     -1.80242100      1.40688600
