14
b3lypvdz=-270.400506361693 
O           5.04412300     -0.02343200     -1.88847700
C           1.74428100      2.24242300      0.86813600
C           3.47343200     -1.55384800     -0.93614800
C           4.06062200     -0.17158300     -1.17926700
C           3.43159300      1.01686900     -0.54603200
C           2.34683400      1.01889800      0.24728600
H           0.69427200      2.36748900      0.54705100
H           2.30057400      3.15203800      0.59636600
H           1.72555600      2.15790100      1.96986800
H           3.52479700     -1.81776000      0.13384100
H           4.04803600     -2.28632900     -1.51692200
H           2.41393900     -1.59647000     -1.23871300
H           3.94451100      1.95417900     -0.79021300
H           1.84423000      0.07122400      0.47682300
