17
b3lypvdz=-197.619830240143 
C          -0.42722100      0.78637300      0.46345800
C           0.48897500     -0.40897000      0.15842900
C          -1.75888200      0.73115500     -0.30805800
C          -2.61397200     -0.51551700     -0.04496900
C           0.29633200      2.11319800      0.18436300
H          -0.66913100      0.75602300      1.54425900
H           1.44496100     -0.31984400      0.70034400
H           0.03044900     -1.36407200      0.46199000
H           0.71872300     -0.47188400     -0.92070400
H          -2.34998100      1.62786500     -0.04481400
H          -1.54883900      0.81001000     -1.39236500
H          -3.58630900     -0.43902400     -0.55799500
H          -2.81329200     -0.64458000      1.03336100
H          -2.12402100     -1.43305400     -0.40952300
H           1.22294000      2.19687500      0.77574200
H           0.57026300      2.19722600     -0.88277700
H          -0.34269500      2.97711900      0.43595900
