17
b3lypvdz=-197.618964843965 
C           0.45258100     -0.47827900      0.14127100
C           1.80829500     -0.42597400      0.86233400
C           1.69686400     -0.34145300      2.38752400
C          -0.30874900     -1.80309000      0.29049600
C          -1.71690000     -1.75190900     -0.30614900
H          -0.18342200      0.34632700      0.51850700
H           0.60063100     -0.27346200     -0.93517600
H           2.41259100     -1.30921900      0.57969300
H           2.37477100      0.44822400      0.49494300
H           1.23504500     -1.24255900      2.82500100
H           2.68444100     -0.21515100      2.85984100
H           1.07317900      0.51784500      2.69130400
H           0.27441200     -2.60988900     -0.19196500
H          -0.37796900     -2.07911100      1.35823800
H          -2.32716700     -0.97624700      0.18726700
H          -2.24746400     -2.71163200     -0.18970100
H          -1.69313700     -1.50922100     -1.38332800
