15
b3lypvdz=-233.525075657144 
C          -2.44341000     -0.47607300     -0.08474500
C          -3.60652600     -0.17857400     -1.03037700
C          -1.83172900     -1.86234500     -0.29575100
C          -4.20285800      1.20930300     -0.79354900
O          -4.58059900     -1.20544200     -0.81491500
H          -1.67613800      0.30729900     -0.21868100
H          -2.82035000     -0.38122900      0.95090900
H          -3.22798000     -0.23472500     -2.07456500
H          -1.00754000     -2.05088400      0.40997200
H          -2.59609300     -2.64083700     -0.15555200
H          -1.42665400     -1.96853300     -1.31743100
H          -3.45562800      2.00024400     -0.97531000
H          -5.05399100      1.39896000     -1.46924000
H          -4.56499400      1.30065500      0.24394100
H          -5.31711100     -1.04612000     -1.42260700
