20
b3lypvdz=-236.902538126087 
C          -0.40683300      0.79909100      0.46163900
C           0.44387400     -0.44271300      0.14709000
C           1.81689300     -0.41014400      0.87320100
C           1.71804000     -0.40822300      2.40804600
C          -0.36480100     -1.73051600      0.37825900
C           2.74593000     -1.54314000      0.40479600
H          -1.29449500      0.84168700     -0.19103000
H           0.16954900      1.72748700      0.30319000
H          -0.76759600      0.79866500      1.50450300
H           0.67573600     -0.40034000     -0.93519800
H           2.29429600      0.54275200      0.57318300
H           1.26320200     -1.33907500      2.78842000
H           2.72219600     -0.32824700      2.85679000
H           1.12337500      0.43628100      2.79058200
H          -1.29625700     -1.70727400     -0.21105000
H           0.19312200     -2.62853900      0.06720700
H          -0.65023300     -1.85613800      1.43713800
H           2.81228900     -1.58467800     -0.69622000
H           3.76691200     -1.39805700      0.79601900
H           2.39570300     -2.52707900      0.76043500
