23
b3lypvdz=-276.187777650461 
C          -0.42427900      0.79597400      0.41421700
C           0.52248100     -0.39774200      0.15753300
C          -1.72446700      0.60455500     -0.39850100
C           1.87425200     -0.36093400      0.88431400
C           0.24784500      2.15078400      0.14180700
C          -2.76567800      1.73046400     -0.27400900
C          -4.14697200      1.33931000     -0.81653800
H          -0.70400600      0.77444600      1.48690400
H          -0.01044600     -1.32249800      0.44704100
H           0.70508800     -0.47999500     -0.93127300
H          -2.18963800     -0.34648500     -0.07743200
H          -1.46534300      0.47070400     -1.46707500
H           1.74822200     -0.21847000      1.97230300
H           2.42030700     -1.30770800      0.73304900
H           2.52206700      0.44838300      0.50958800
H           1.13191600      2.29842600      0.78197100
H           0.57435400      2.23354900     -0.91119300
H          -0.43771800      2.98786400      0.35066700
H          -2.86839000      2.02580500      0.78731400
H          -2.40861600      2.62574400     -0.81214900
H          -4.56435800      0.48284100     -0.26026000
H          -4.09570400      1.05083500     -1.88157800
H          -4.86041700      2.17664700     -0.72810300
