23
b3lypvdz=-276.185947092164 
C          -0.43587100      0.74606400      0.41947900
C           0.41630800     -0.51248600      0.15272800
C          -1.73626000      0.84238700     -0.38697900
C           1.79470300     -0.42286100      0.86823000
C           1.71250300     -0.40070900      2.40255700
C          -0.34820000     -1.81581300      0.44016700
C           2.76629300     -1.52246200      0.40970600
H           0.18885600      1.63097000      0.19551100
H          -0.68107200      0.81098600      1.49562200
H           0.64577900     -0.50875900     -0.93195300
H          -2.46416000      0.06796500     -0.09356800
H          -2.22296100      1.81922100     -0.22754200
H          -1.55059100      0.73412600     -1.47048500
H           2.23073600      0.54335000      0.54709100
H           1.27322900     -1.33253200      2.79949900
H           2.72056400     -0.30502700      2.83911400
H           1.11172500      0.43882400      2.78457400
H          -1.23435300     -1.90511500     -0.20748300
H           0.27882500     -2.70104800      0.24744800
H          -0.69911200     -1.87078000      1.48544900
H           2.81210500     -1.59676100     -0.68997000
H           3.78637900     -1.31788400      0.77561700
H           2.47357400     -2.51215600      0.80119000
