21
b3lypvdz=-312.088376371579 
C          -0.37344700      0.75544200      0.32577600
C          -1.80394600      0.93031600     -0.20187000
C          -2.69202400     -0.31005300      0.01235200
C          -3.78811600     -0.39779100     -1.04902700
C          -3.29335000     -0.35841700      1.42365700
C           0.46692800      2.02945500      0.22893200
O          -4.49015800     -1.62012000     -0.85093900
H           0.11523500     -0.05787800     -0.24139700
H          -0.40276000      0.41384200      1.37619600
H          -2.27303900      1.80615100      0.28533300
H          -1.75214800      1.17545300     -1.27992700
H          -2.06742200     -1.21299600     -0.12766400
H          -4.47321200      0.47318000     -0.96848200
H          -3.32474000     -0.36010400     -2.05713500
H          -3.95172800      0.51205300      1.59580600
H          -3.89978600     -1.26623700      1.55564900
H          -2.50983000     -0.34645300      2.19912100
H           1.49090400      1.86551700      0.60275100
H           0.54133900      2.38336900     -0.81411400
H           0.02054400      2.84543200      0.82265700
H          -5.20464400     -1.67085900     -1.50077500
