17
b3lypvdz=-197.618410131251 
C          -0.43672500      0.81862500      0.45271300
C           0.42634700     -0.41111200      0.12901400
C           1.78850000     -0.38504800      0.85639500
C           1.73791600     -0.43292900      2.38946700
C          -0.34615200     -1.71837500      0.37119100
H          -1.34258500      0.84017900     -0.17538800
H           0.12000000      1.75406300      0.26830700
H          -0.76741500      0.82408000      1.50554900
H           0.65469000     -0.36781400     -0.95297800
H           2.39485700     -1.23569100      0.49344100
H           2.33294700      0.52636700      0.54662000
H           1.25730000     -1.35384100      2.75930700
H           2.75766400     -0.40612300      2.80698500
H           1.18928000      0.42379000      2.81346000
H          -1.24712700     -1.76550200     -0.26268900
H           0.27593700     -2.59877900      0.13305400
H          -0.67803500     -1.81199100      1.41945300
