18
b3lypvdz=-235.710703194841 
C          -0.43766800      0.80170800      0.43925400
C           0.41815000     -0.44135400      0.14195300
C          -1.76878000      0.76801500     -0.32712700
C          -2.54689800     -0.53020800     -0.05243600
C          -0.35350100     -1.74678600      0.40200200
C          -1.69789800     -1.77990000     -0.34235800
H           0.12617600      1.71616900      0.18296500
H          -0.64652200      0.85309400      1.52501600
H           1.33953600     -0.42211400      0.74879900
H           0.73919300     -0.41423400     -0.91684100
H          -2.38634800      1.64249100     -0.05543600
H          -1.56404300      0.85078400     -1.41186200
H          -3.47088900     -0.55403600     -0.65513200
H          -2.86324300     -0.54429600      1.00799400
H           0.26318100     -2.61331000      0.10402500
H          -0.53797300     -1.85120000      1.48872000
H          -2.25994400     -2.68900800     -0.06392100
H          -1.50843100     -1.84801600     -1.43091600
