8
b3lypvdz=-191.813503119511 
O           5.10109800     -0.10232700     -1.83971300
C           4.12705700     -0.13731500     -1.11732800
C           3.54543300      1.04565000     -0.45100800
C           2.49181200      0.94024800      0.37083700
H           3.59374300     -1.10213200     -0.90178600
H           4.03122800      2.00310600     -0.66633900
H           2.02329900     -0.03001800      0.56981500
H           2.06173000      1.80958800      0.87462200
