12
b3lypvdz=-194.23358690503 
O          -4.60787700     -1.35800200     -0.85532300
C          -2.53737700     -0.47723900     -0.05656300
C          -3.72677100     -0.24651400     -0.98121700
C          -1.81815700     -1.80228300     -0.32462100
H          -5.35974000     -1.21332400     -1.44641900
H          -1.84130600      0.37371100     -0.17050700
H          -2.90063600     -0.45191800      0.98706400
H          -4.23309600      0.70138500     -0.70450500
H          -3.36689200     -0.13321100     -2.02673000
H          -0.97279200     -1.95104600      0.36525000
H          -2.51766100     -2.64336000     -0.20582800
H          -1.42029400     -1.84039900     -1.35430100
