20
b3lypvdz=-236.904179955137 
C          -0.39094800      0.73420000      0.44501200
C           0.51328700     -0.49141900      0.24517900
C          -1.68169700      0.75517900     -0.38725000
C           1.89709400     -0.33647500      0.88387100
C          -2.60278400     -0.46422700     -0.23919400
C          -3.93401400     -0.30437000     -0.97931800
H           0.19030400      1.64287900      0.19797700
H          -0.64382600      0.82440000      1.51991400
H           0.01564200     -1.38806000      0.65776900
H           0.63329200     -0.68518400     -0.83850400
H          -2.25329700      1.66295200     -0.11551400
H          -1.41997500      0.87543900     -1.45733300
H           1.82842600     -0.17233200      1.97418400
H           2.52500700     -1.22850800      0.72052300
H           2.43614300      0.52748300      0.45697700
H          -2.80180000     -0.64991100      0.83425400
H          -2.08318000     -1.36612300     -0.61133700
H          -4.49575100      0.57092400     -0.60736100
H          -4.58219800     -1.18778600     -0.85377000
H          -3.77732500     -0.15576100     -2.06287700
