20
b3lypvdz=-236.903353822464 
C          -1.72354800      0.82791600     -0.26740400
C          -2.55557000     -0.45227100     -0.04793000
C          -3.74293100     -0.43735600     -1.03375000
C          -3.09680400     -0.46873900      1.39175800
C          -0.35133900     -1.84652700      0.34676500
C          -1.72524400     -1.73414300     -0.32979300
H          -0.89785500      0.91878900      0.45719800
H          -2.35972400      1.72256400     -0.15061100
H          -1.28707300      0.85524300     -1.28060900
H          -4.40388400      0.42758900     -0.85336000
H          -4.35636900     -1.35068000     -0.93980500
H          -3.38494200     -0.37910800     -2.07627900
H          -3.72363700      0.41817100      1.58840200
H          -3.72249500     -1.35985200      1.57301700
H          -2.28231300     -0.46935500      2.13569300
H           0.34887100     -1.07760700     -0.01821400
H           0.10252600     -2.82773200      0.12609200
H          -0.41652800     -1.75303900      1.44419100
H          -2.34050000     -2.60498400     -0.03333600
H          -1.58094000     -1.82558000     -1.42262700
