20
b3lypvdz=-236.902964058194 
C          -0.48863100      0.87832200      0.43368800
C          -1.76071200      0.72633300     -0.42276400
C          -2.51632300     -0.58012200     -0.10551800
C           0.28637700      2.18751100      0.23246400
C          -2.71338000      1.92281200     -0.27810800
C          -1.72990500     -1.88027800     -0.31656100
H           0.18904600      0.03619900      0.20957200
H          -0.76294100      0.77530300      1.50213400
H          -1.43922100      0.67757800     -1.48384400
H          -3.42496700     -0.60871900     -0.73270000
H          -2.87449100     -0.53710200      0.94162900
H           1.23646500      2.16977400      0.79031500
H           0.52912500      2.35370400     -0.83206200
H          -0.28222100      3.06226900      0.58690700
H          -3.62591600      1.77044500     -0.87770000
H          -3.02664400      2.06018900      0.77274900
H          -2.25238600      2.86367600     -0.61626000
H          -0.88334300     -1.97862700      0.38196100
H          -2.38264000     -2.75578700     -0.16223700
H          -1.32259200     -1.94258000     -1.34116500
