14
b3lypvdz=-158.333891865246 
C           3.34609500     -1.46731000     -0.96054600
C           0.47009400     -0.41847900      0.12869000
C           1.83174800     -0.39815900      0.83636100
C           2.76666000     -1.55953100      0.45783400
H           3.90616100     -0.52542900     -1.09737800
H           4.04316900     -2.29856800     -1.16032900
H           2.55838000     -1.50534100     -1.73153100
H          -0.17280500      0.40348000      0.48595700
H          -0.06317600     -1.36592400      0.32444200
H           0.57029500     -0.30738200     -0.96443100
H           1.66041600     -0.42251900      1.92812600
H           2.34427400      0.55987000      0.62481400
H           3.60526800     -1.59133200      1.17716300
H           2.22332000     -2.51627600      0.57782700
