14
b3lypvdz=-158.333915230136 
C          -0.32488000     -1.76317400      0.35907600
C          -2.58674200     -0.56340600     -0.00736700
C          -1.69071000     -1.76843300     -0.34112000
C          -3.14688700     -0.56749200      1.42142600
H           0.23413900     -0.83853700      0.12908400
H           0.29250500     -2.61433900      0.02562100
H          -0.42126700     -1.83499400      1.45567500
H          -2.01862100      0.37016000     -0.18325400
H          -3.43491500     -0.54356700     -0.71567700
H          -2.23267800     -2.70008100     -0.08903400
H          -1.52475500     -1.79413300     -1.43371200
H          -3.82282200      0.28865200      1.58598100
H          -3.72551300     -1.48789500      1.61619200
H          -2.34755300     -0.50656200      2.17850900
