17
b3lypvdz=-197.617700520552 
C           0.46770200     -0.45780300      0.19255200
C          -2.66074900     -0.59098000     -0.03771600
C          -3.09724200     -0.53911800      1.42969400
C          -0.34577000     -1.74927300      0.33711100
C          -1.70637500     -1.74606700     -0.38222400
H          -0.02674900      0.39611700      0.68486700
H           1.46295800     -0.56612300      0.65378800
H           0.61728100     -0.18540600     -0.86710500
H          -2.19067300      0.37033900     -0.31681700
H          -3.55586600     -0.68106500     -0.67834800
H          -3.82754000      0.26810500      1.60511000
H          -3.57294000     -1.48691800      1.73879200
H          -2.24495600     -0.36241500      2.10664600
H           0.24520300     -2.59345900     -0.06185800
H          -0.48878600     -1.96778100      1.41096500
H          -2.21958500     -2.70149300     -0.15913800
H          -1.53091200     -1.74265800     -1.47421900
