17
b3lypvdz=-197.619937426445 
C          -0.43391100      0.77313600      0.39661800
C           0.44025000     -0.46202500      0.09719800
C          -1.78047200      0.82398200     -0.33834700
C           1.77439900     -0.37654200      0.85468200
C          -0.27301100     -1.79051600      0.39031500
H           0.14869800      1.67586300      0.13467800
H          -0.61573600      0.83244100      1.48775900
H           0.67297300     -0.44419400     -0.98707300
H          -2.46150500      0.02251200     -0.00715200
H          -2.29279600      1.78267800     -0.14960800
H          -1.64681700      0.72489700     -1.43026500
H           1.61534900     -0.40049300      1.94843000
H           2.43605300     -1.22062200      0.59551500
H           2.31229800      0.55647500      0.61377000
H          -1.15880600     -1.93096000     -0.24919700
H           0.40226100     -2.64399900      0.20701100
H          -0.60402700     -1.84553400      1.44376500
