21
b3lypvdz=-274.964856997044 
C           0.38856900     -0.45275400      0.16394200
C           1.83446900     -0.35705300      0.72461500
C          -0.32434200     -1.78440300      0.42189800
C           1.74277000      2.22623800      0.75062700
C           2.67913000     -1.58721500      0.37324200
C           3.62760800      1.05918400     -0.34955200
C           2.47627300      0.97133700      0.33232700
H          -0.21363700      0.35947000      0.60445900
H           0.41659200     -0.25791200     -0.92457800
H           1.73863000     -0.33494000      1.83079700
H          -1.37653400     -1.72942200      0.09782900
H           0.14252500     -2.61540200     -0.12944900
H          -0.31721000     -2.05013900      1.49356200
H           0.81572000      2.37009900      0.16937900
H           2.37017700      3.11739900      0.59966000
H           1.44221600      2.18770900      1.81307700
H           2.74636900     -1.74066500     -0.71757600
H           3.70258500     -1.49270400      0.76638000
H           2.24305600     -2.49717100      0.81054300
H           4.18537600      0.18317900     -0.68261400
H           4.05455800      2.03306500     -0.60556700
