17
b3lypvdz=-309.670947008527 
C          -0.51702200      0.80763800      0.47915600
C           0.36887900     -0.41118900      0.19887700
C           1.79488800     -0.33789200      0.79501100
O           5.17046800      0.01491200     -1.93671000
C           4.23290300     -0.12804700     -1.17466900
C           3.60799400      0.99053200     -0.44882200
C           2.56179100      0.89522900      0.39782400
H          -1.53335500      0.64747800      0.08462400
H          -0.12158400      1.71921300      0.00147400
H          -0.60463700      1.00720100      1.56150800
H          -0.11795900     -1.31549700      0.60398600
H           0.44579300     -0.56181900     -0.89282900
H           1.71469600     -0.34170500      1.89896300
H           2.34337100     -1.25155000      0.52132200
H           3.79298900     -1.14238900     -1.00076800
H           4.06876100      1.96337100     -0.65207200
H           2.20692400      1.82791200      0.85422400
