6
b3lypvdz=-115.656621922048 
O          -4.81970300     -1.20644600     -0.74861300
C          -3.76264800     -0.30201200     -1.02390700
H          -5.53451900     -1.00754100     -1.37063700
H          -2.96542300     -0.51221400     -0.29396300
H          -4.06032700      0.76146700     -0.90665600
H          -3.33278100     -0.43355500     -2.03872500
