23
b3lypvdz=-276.187543769355 
C          -0.40975200      0.80843900      0.48983200
C           0.51519100     -0.37055500      0.12291900
C          -1.76112900      0.74513700     -0.25223400
C           1.93737700     -0.31640300      0.69724300
C          -2.53400500     -0.57330300     -0.14261700
C           0.24011000      2.18029900      0.25521300
C           2.68433100     -1.64468300      0.54221200
H          -0.62454900      0.72513200      1.57494600
H           0.03990900     -1.30225800      0.47864100
H           0.57594500     -0.46603300     -0.97992200
H          -2.39547900      1.56598400      0.12995400
H          -1.58595800      0.97594400     -1.32150400
H           1.89529700     -0.04946800      1.77047600
H           2.51190300      0.48910900      0.20714700
H          -3.52321600     -0.48626900     -0.62093800
H          -2.69660000     -0.86442100      0.91014400
H          -2.00686000     -1.40346600     -0.63971200
H           1.12578100      2.33594800      0.88992200
H           0.55657000      2.29855000     -0.79726300
H          -0.47349900      2.99106000      0.48065900
H           2.76642200     -1.94069800     -0.51832100
H           3.70435500     -1.58769600      0.95620500
H           2.15775900     -2.45844900      1.07050000
