21
b3lypvdz=-312.087637536405 
C          -0.36261800      0.77379300      0.40701000
C           0.44612200     -0.51504800      0.22676900
C          -1.70928800      0.81238700     -0.33827100
C          -2.66498800     -0.36860600     -0.08867800
C          -3.89196300     -0.27086700     -0.99866400
C          -3.09188800     -0.49974000      1.37946100
O          -4.59552100     -1.50726900     -0.92108900
H           0.24071000      1.62804600      0.05058400
H          -0.52320500      0.95229400      1.48507500
H           1.43400300     -0.42713900      0.70706400
H          -0.05813000     -1.38347200      0.68097500
H           0.61081300     -0.74920100     -0.83942900
H          -2.22675500      1.75318900     -0.06747500
H          -1.50676500      0.87553900     -1.42413200
H          -2.15576600     -1.30358300     -0.38615900
H          -4.53507900      0.57579000     -0.67702900
H          -3.56615200     -0.05960400     -2.03822100
H          -3.53714600      0.44316500      1.74606200
H          -3.84723600     -1.29272800      1.48553900
H          -2.24132900     -0.74475200      2.03459300
H          -5.40082000     -1.43109400     -1.45158600
