20
b3lypvdz=-236.902067463325 
C          -1.85966000      0.77002900     -0.31628500
C          -2.56075600     -0.56509600      0.00306900
C          -3.10297200     -0.60754800      1.44325300
C          -0.29613800     -1.83618900      0.37548400
C          -2.80006400      1.98154300     -0.38094700
C          -1.66632700     -1.78737300     -0.31668600
H          -1.07269000      0.96384800      0.43508300
H          -1.34121400      0.67664000     -1.28891700
H          -3.43335400     -0.64163700     -0.67468900
H          -3.87001300      0.16552000      1.61219200
H          -3.57224100     -1.58246800      1.66094200
H          -2.30240700     -0.44508600      2.18546600
H           0.34531800     -0.99102900      0.07494200
H           0.23916800     -2.76126000      0.10185000
H          -0.38600300     -1.81975600      1.47502700
H          -3.60645100      1.82122300     -1.11746200
H          -3.27560900      2.19037900      0.59195100
H          -2.24976400      2.88931000     -0.68099400
H          -2.23091400     -2.70362200     -0.06189300
H          -1.50651200     -1.82492800     -1.41088600
