14
b3lypvdz=-158.335340605472 
C          -2.42512300     -0.47940800     -0.07497100
C          -3.58089900     -0.18298600     -1.03362200
C          -1.79853900     -1.85963300     -0.29012000
C          -4.20681700      1.19729700     -0.81722200
H          -1.64883500      0.30101700     -0.19008700
H          -2.79177900     -0.39411200      0.96610400
H          -4.35856900     -0.96179100     -0.91563200
H          -3.21590000     -0.27153700     -2.07485800
H          -0.96668900     -2.04451000      0.40837000
H          -2.54085700     -2.66353200     -0.14419700
H          -1.39921500     -1.96189900     -1.31448700
H          -3.46869700      2.00265700     -0.97609900
H          -5.04823500      1.37769500     -1.50535600
H          -4.59254700      1.30254200      0.21197600
