14
b3lypvdz=-158.333310710365 
C          -0.39562700      0.80699400      0.47702900
C           0.38467400     -0.46155400      0.10726900
C           1.73651700      2.24460200      0.83854900
C           0.33935800      2.13460900      0.21449600
H          -1.34510500      0.82235100     -0.08698300
H          -0.67717700      0.75311500      1.54582600
H           1.26628500     -0.60369800      0.75276300
H          -0.25317700     -1.35436800      0.22283400
H           0.73562300     -0.43311100     -0.93969200
H           2.44320600      1.52763800      0.39000900
H           2.15443600      3.25380400      0.68397200
H           1.71008000      2.05573400      1.92681800
H           0.42036800      2.29307900     -0.87804100
H          -0.28986200      2.95950400      0.59535300
