19
b3lypvdz=-310.885826704853 
C           0.52758100     -0.37956900      0.20395900
C           1.83774900     -0.45227200      1.00707200
O           5.09084700     -0.07582100     -1.69632800
C          -0.29959500     -1.67012200      0.21865000
C           2.85146400     -1.52448900      0.56466500
C           3.30088400     -1.49451500     -0.91623300
C           3.93717000     -0.19294100     -1.34993600
H          -0.08142000      0.44287600      0.61893100
H           0.74036700     -0.09298000     -0.84270100
H           1.58726400     -0.64823800      2.06657200
H           2.32149000      0.54116200      0.99545400
H          -1.23986000     -1.54218600     -0.34157400
H           0.24134000     -2.51432400     -0.24133400
H          -0.56248100     -1.96675700      1.24908700
H           3.75005200     -1.43804200      1.20057000
H           2.43287700     -2.52575600      0.76624800
H           4.03200500     -2.29752300     -1.10220700
H           2.42821900     -1.67126500     -1.57394400
H           3.25774700      0.70226200     -1.34595400
