21
b3lypvdz=-274.997470591634 
C          -0.51402200      0.80136200      0.37179400
C           0.38901300     -0.42225400      0.15518200
C          -1.81572000      0.71538300     -0.44346900
C          -2.55667800     -0.59630200     -0.12588000
C          -0.34931000     -1.74103000      0.43572100
C          -2.70224100      1.94493600     -0.22655400
C          -1.67107900     -1.83398500     -0.34031200
H           0.03378000      1.72350300      0.10727100
H          -0.77262100      0.88992100      1.44561400
H           1.28907700     -0.34920100      0.78880800
H           0.74705800     -0.42142700     -0.89192900
H          -1.53033900      0.68356000     -1.51452300
H          -3.46820200     -0.66943500     -0.74402100
H          -2.89828800     -0.56655600      0.92771500
H           0.30055300     -2.59592400      0.17864900
H          -0.55809000     -1.82276700      1.51977200
H          -3.61198800      1.90090300     -0.84780100
H          -3.02386500      2.02593000      0.82697800
H          -2.16446100      2.87362400     -0.48281200
H          -2.21945700     -2.74451300     -0.04197600
H          -1.45201900     -1.94042800     -1.42002700
