14
b3lypvdz=-158.335456084303 
C           0.43179000     -0.42343900      0.13695600
C          -0.33703700     -1.73061900      0.37585800
C           1.80357300     -0.38867300      0.82312600
C          -1.69958100     -1.77411800     -0.32791200
H          -0.17922600      0.42696500      0.49428200
H           0.56350500     -0.27447900     -0.95139000
H           0.28042400     -2.58230500      0.03272900
H          -0.48223600     -1.87177700      1.46352600
H           1.70565900     -0.48669800      1.91868600
H           2.44696800     -1.21316400      0.47037700
H           2.33272100      0.55711500      0.61656700
H          -2.34850700     -0.94611700      0.00638600
H          -2.23086800     -2.71786700     -0.11768200
H          -1.58638600     -1.68862500     -1.42300800
