20
b3lypvdz=-236.902653687956 
C          -0.43900400      0.80229900      0.41524300
C           0.41221900     -0.44828100      0.15029400
C          -1.73643800      0.72167400     -0.41540300
C           0.32827500      2.11834900      0.16363700
C          -2.72780600      1.87643000     -0.24497800
C           1.70188600      2.22871200      0.83491100
H          -0.72802600      0.78701300      1.48646400
H           1.28117600     -0.51746400      0.82208800
H          -0.19064000     -1.36126100      0.29286200
H           0.79164300     -0.46110200     -0.88761400
H          -2.24649500     -0.22471800     -0.15837800
H          -1.45877100      0.63260400     -1.48391500
H           0.44875200      2.26097800     -0.92849400
H          -0.29815700      2.95840100      0.51019900
H          -3.64845900      1.68582400     -0.82005500
H          -3.01944700      2.01024800      0.81142900
H          -2.31502500      2.83487000     -0.59904500
H           2.42585800      1.50736300      0.42264100
H           2.12818600      3.23522400      0.68779700
H           1.64117200      2.04993900      1.92321800
