21
b3lypvdz=-274.960689239478 
C           0.44968600     -0.46576700      0.16503400
C           1.86076000     -0.40416200      0.82278900
C           1.73570400     -0.35678300      2.36125900
C          -0.34984700     -1.76207200      0.36779400
C           2.71094300     -1.62158900      0.41991700
C           3.55572000      1.07100400     -0.41967000
C           2.49316500      0.90319600      0.37440000
H          -0.14745800      0.38415100      0.54435800
H           0.56636500     -0.29009600     -0.91951700
H           1.31783300     -1.29409900      2.76430700
H           2.72196700     -0.20130100      2.82949200
H           1.07755500      0.46710500      2.68572600
H          -1.34040100     -1.67108200     -0.10754300
H           0.15207100     -2.62796600     -0.09345400
H          -0.51533500     -1.99261700      1.43356300
H           2.76433700     -1.74331400     -0.67466100
H           3.74002700     -1.52914700      0.80252500
H           2.28941100     -2.54930300      0.83812200
H           4.11959100      0.23232100     -0.83638300
H           3.90283600      2.07365300     -0.68584200
H           1.98607000      1.80397000      0.75048100
