23
b3lypvdz=-276.188854491934 
C          -0.46030400      0.72252900      0.51732900
C           0.45894200     -0.47595900      0.24198100
C          -1.75626000      0.74165500     -0.30931200
C           1.86181000     -0.39305100      0.86926100
C          -2.63538800     -0.50825600     -0.17212500
C           1.81751100     -0.32944500      2.40201900
C           2.72761500     -1.57215000      0.40576900
H           0.09948600      1.65424900      0.30753000
H          -0.71858800      0.75815000      1.59257300
H          -0.02520700     -1.40722100      0.59491200
H           0.57572000     -0.59209600     -0.85317000
H          -2.34475400      1.63026500     -0.01688000
H          -1.49804900      0.88685300     -1.37612600
H           2.33472900      0.53947700      0.49828000
H          -3.57649300     -0.39501200     -0.73457600
H          -2.89824500     -0.70703600      0.88233000
H          -2.13021400     -1.40823000     -0.56146700
H           1.27908800     -1.20261000      2.81518800
H           2.83478900     -0.33728000      2.82812700
H           1.30952900      0.57404600      2.77537200
H           2.78567300     -1.62735700     -0.69459100
H           3.75615900     -1.49482600      0.79580300
H           2.30855000     -2.52929600      0.76717600
