17
b3lypvdz=-309.672331678976 
C           0.24626200     -0.38091900      0.20956200
C           1.74776600     -0.41239800      0.56144700
O           5.49349100      0.06960200     -1.58910500
C          -0.43827600     -1.71957200      0.49225800
C           4.46499500     -0.10377000     -0.96164100
C           3.61357500      1.00202100     -0.48942400
C           2.44982900      0.86017800      0.17810300
H          -0.24551800      0.42486600      0.78428300
H           0.12564300     -0.11478100     -0.85593800
H           1.84885600     -0.56179900      1.65490800
H           2.21401400     -1.28650200      0.08379100
H          -1.51117600     -1.68689000      0.24155900
H           0.01794900     -2.52988100     -0.10071400
H          -0.34702700     -1.99717800      1.55697400
H           4.12723600     -1.13612400     -0.69499100
H           3.99748200      1.99908300     -0.72878700
H           1.92659900      1.77886600      0.47781200
