18
b3lypvdz=-272.803841909616 
C          -0.34576300      0.69177100      0.42818500
C          -1.71091200      0.83516800     -0.25210100
C          -2.66653800     -0.35108300     -0.02287000
C          -3.81952600     -0.32614000     -1.02936700
C          -3.20186200     -0.41952700      1.41278500
O          -4.56440700     -1.53020900     -0.87572600
H           0.14874100     -0.24724300      0.12345100
H           0.32526300      1.52093400      0.14922800
H          -0.42416500      0.68486100      1.52780000
H          -2.20200200      1.76518600      0.09371300
H          -1.54941400      0.95967100     -1.33881100
H          -2.10763200     -1.28450800     -0.23010100
H          -4.45564000      0.56731000     -0.85257200
H          -3.40750900     -0.23786800     -2.05590400
H          -3.71726300      0.52106600      1.68192500
H          -3.93033000     -1.23775000      1.51100700
H          -2.39540200     -0.58191000      2.14442200
H          -5.31603900     -1.49883100     -1.48396300
