20
b3lypvdz=-236.903538681613 
C           0.64050200     -0.66884800      0.37114600
C          -2.35588200     -0.25361800     -0.30843600
C          -3.75910400     -0.22629000     -0.92475600
C          -0.39453600     -1.79707800      0.38347200
C          -1.61132400     -1.57994900     -0.52945200
C          -4.45176000      1.13048200     -0.78034900
H           0.21945400      0.27557900      0.75376800
H           1.50678300     -0.92122700      1.00414000
H           1.01939200     -0.47315000     -0.64731900
H          -1.76235000      0.57903300     -0.72801800
H          -2.43767600     -0.04681100      0.77669300
H          -4.37458500     -1.01290900     -0.45011500
H          -3.69952200     -0.49820200     -1.99535600
H           0.09735300     -2.74321300      0.09465400
H          -0.75408900     -1.94477200      1.41937800
H          -2.31508300     -2.41801900     -0.37019100
H          -1.29845000     -1.64658200     -1.58932500
H          -3.87625600      1.92707400     -1.28263000
H          -5.45975100      1.12161400     -1.22569600
H          -4.55441500      1.41788500      0.28049300
