20
b3lypvdz=-236.901578491426 
C          -0.50463400      0.87647200      0.46980400
C          -1.78778400      0.71314800     -0.36737800
C          -2.54473400     -0.58774700     -0.01039500
C          -3.11410800     -0.66522700      1.41499900
C           0.29935700      2.15295700      0.18365200
C          -2.71186100      1.94192700     -0.30919800
H           0.14038800     -0.00242200      0.28404400
H          -0.75422400      0.85175200      1.54685700
H          -1.46404300      0.60177800     -1.42193300
H          -3.37392000     -0.71439600     -0.72994400
H          -1.86738800     -1.44705300     -0.17555300
H          -3.80298900      0.16900500      1.63016100
H          -3.68292300     -1.60022200      1.55414900
H          -2.31941800     -0.64968500      2.17921900
H           1.25084100      2.14766800      0.73995400
H           0.54047600      2.24871000     -0.89010000
H          -0.25198600      3.05749700      0.48848100
H          -3.64667400      1.75260500     -0.86314500
H          -2.98384900      2.20640500      0.72776200
H          -2.23882800      2.82702900     -0.76303700
