8
b3lypvdz=-79.764148735579 
C          -0.42945600      0.81511000      0.47361700
C           0.42155600     -0.41391000      0.13988400
H          -1.37037900      0.81872000     -0.10089900
H           0.10919700      1.74911700      0.23884800
H          -0.69284800      0.84039400      1.54471500
H           1.36248000     -0.41752200      0.71439800
H          -0.11709800     -1.34791500      0.37465300
H           0.68494700     -0.43919400     -0.93121500
