17
b3lypvdz=-197.619867149951 
C          -2.57708000     -0.49782900      0.00347600
C          -3.72106500     -0.33959100     -1.01012400
C          -3.12969900     -0.56214900      1.43525800
C          -0.34180900     -1.77040000      0.35353300
C          -1.71269800     -1.72872900     -0.33668300
H          -1.93211700      0.39993800     -0.07807700
H          -4.33602400      0.54998300     -0.79015800
H          -4.39058800     -1.21861600     -0.99414600
H          -3.33017300     -0.23266300     -2.03644700
H          -3.73498400      0.33050700      1.66811600
H          -3.78136400     -1.44503300      1.56467800
H          -2.32570200     -0.62306700      2.18692100
H           0.24824600     -0.86762700      0.11521900
H           0.24120000     -2.64399600      0.01622900
H          -0.42963500     -1.83605000      1.45115500
H          -2.28355100     -2.64401700     -0.08537600
H          -1.55115600     -1.75746000     -1.43007400
