21
b3lypvdz=-312.089133355264 
C          -0.46266600      0.91368000      0.43176900
C          -1.78239200      0.94893200     -0.34448900
C          -2.66597000     -0.27877600     -0.10570600
C          -3.85483900     -0.36128900     -1.05231500
C           0.41811100      2.14830100      0.20539500
C           1.79341400      2.04984900      0.86943600
O          -4.61561600     -1.50502800     -0.69106600
H           0.10139400      0.00818900      0.13581800
H          -0.67218800      0.79729100      1.51242000
H          -2.34387800      1.86629000     -0.08241400
H          -1.55403900      1.03529700     -1.42473000
H          -3.04896100     -0.28454100      0.93078400
H          -2.07148500     -1.20265300     -0.22236400
H          -4.45995700      0.56773100     -0.98426700
H          -3.48547700     -0.43157500     -2.09805700
H           0.54803500      2.30169300     -0.88255900
H          -0.11112000      3.04680600      0.57449100
H           2.34574200      1.16544400      0.50697600
H           2.41338400      2.93581500      0.65368600
H           1.71036400      1.95815900      1.96636600
H          -5.36285500     -1.57501500     -1.30167400
