21
b3lypvdz=-312.087473440351 
C          -1.71100100      0.83808200     -0.29922200
C          -2.55951900     -0.41987100     -0.04416400
C          -3.77374800     -0.35499600     -0.99195900
C          -3.06782000     -0.42021900      1.41147400
C          -0.41311300     -1.88691500      0.34165900
C          -1.76895600     -1.72234100     -0.34954200
O          -4.56494000     -1.52539800     -0.82962800
H          -0.85094400      0.89281500      0.38534900
H          -2.31183000      1.75060900     -0.14365700
H          -1.31607900      0.86498700     -1.32941600
H          -4.36308500      0.55656500     -0.76295000
H          -3.40529200     -0.25669100     -2.03479000
H          -3.60551600      0.51735300      1.63590700
H          -3.77220100     -1.24938400      1.57618400
H          -2.24072500     -0.50887400      2.13257300
H           0.31277600     -1.12014800      0.02470000
H           0.02395400     -2.86657800      0.08685700
H          -0.48857300     -1.83799100      1.44058100
H          -2.42424200     -2.57120600     -0.09631000
H          -1.61323600     -1.78058300     -1.44358400
H          -5.32521000     -1.45991600     -1.42386300
