14
b3lypvdz=-158.333556418628 
C           0.44374100     -0.43320000      0.14467100
C          -0.35065100     -1.72431700      0.38283100
C           1.82643100     -0.39551600      0.81731900
C           2.75840500     -1.55275500      0.43669600
H          -0.14736800      0.42601500      0.51080700
H           0.56554800     -0.28017600     -0.94466000
H          -1.36040000     -1.64923100     -0.05334600
H           0.14006100     -2.59614900     -0.08007400
H          -0.46427300     -1.93441100      1.46108400
H           1.69405700     -0.38488300      1.91588600
H           2.31733200      0.56041500      0.55765200
H           2.89399900     -1.61748300     -0.65729100
H           3.75386500     -1.42001500      0.89163100
H           2.36625300     -2.52279400      0.78489200
