17
b3lypvdz=-197.619953742971 
C           0.51693100     -0.43505100      0.14634100
C           1.87247100     -0.40567100      0.87121200
C           1.66889900     -0.40518900      2.39448200
C           2.78950000     -1.56784900      0.43997600
C           3.32425800     -1.46361500     -0.99577000
H          -0.12403400      0.40283900      0.46918300
H          -0.02696700     -1.37201300      0.36613600
H           0.63115700     -0.35946700     -0.94773700
H           2.38223500      0.54016700      0.59859100
H           1.18430400     -1.33975400      2.73103900
H           2.63023200     -0.31453200      2.92743500
H           1.02601100      0.43192500      2.71466900
H           3.65158100     -1.61902100      1.12994600
H           2.24180900     -2.52211900      0.56462200
H           3.88676100     -0.52473200     -1.14187600
H           4.00876900     -2.29760000     -1.22529500
H           2.51308300     -1.48971900     -1.74235500
