23
b3lypvdz=-276.189593241422 
C          -0.51256900      0.65212200      0.29159100
C           0.50364700     -0.48144300      0.03860900
C          -1.88439200      0.49961300     -0.37476700
C           1.75433100     -0.27207200      0.90244900
C          -0.08000200     -1.88249500      0.27901800
C          -2.74330900      1.76819600     -0.28199600
C          -4.19207100      1.56262100     -0.73307700
H          -0.05308800      1.60094700     -0.04630700
H          -0.66246500      0.76578900      1.38366800
H           0.80936000     -0.42590500     -1.02468200
H          -2.43415200     -0.33713800      0.09298400
H          -1.75719000      0.22161500     -1.43946700
H           1.50866600     -0.37302100      1.97551800
H           2.53653300     -1.01427600      0.67123300
H           2.18895200      0.73130000      0.75299200
H          -0.90399700     -2.11238700     -0.41429400
H           0.69264900     -2.65757100      0.13887700
H          -0.47148500     -1.98212700      1.30795400
H          -2.73585800      2.13658600      0.76136300
H          -2.27407400      2.56795700     -0.88503000
H          -4.70174900      0.81191300     -0.10501600
H          -4.24402100      1.20129900     -1.77574300
H          -4.77431500      2.49677500     -0.67127600
