20
b3lypvdz=-236.904133392761 
C           0.51280300     -0.35257700      0.28014900
C           1.92481600     -0.54291000      0.83971500
C          -2.60829900     -0.39935000     -0.16285200
C          -3.88897900     -0.48042100     -0.99607000
C          -0.37413900     -1.59902900      0.42942200
C          -1.66505000     -1.58620700     -0.40299800
H           0.02980800      0.50709900      0.77772600
H           0.58210800     -0.07970100     -0.79018500
H           1.90870800     -0.80170400      1.91326400
H           2.44987200     -1.36005200      0.31643600
H           2.53415500      0.36913200      0.72468700
H          -2.08144300      0.54354900     -0.39505700
H          -2.87076400     -0.34460200      0.91103600
H          -4.56984400      0.36080900     -0.78628800
H          -4.44387800     -1.41283900     -0.79017300
H          -3.66145500     -0.46546800     -2.07668300
H           0.21457100     -2.48698400      0.13193000
H          -0.62005400     -1.74641700      1.49852600
H          -2.21969300     -2.52250400     -0.20368000
H          -1.39834200     -1.61782400     -1.47720600
