21
b3lypvdz=-274.964356133299 
C           0.43109200     -0.52179400      0.19658300
C           1.84794500     -0.36953400      0.80563200
C           1.73278500     -0.41381000      2.34646200
C           1.73568000      2.24047000      0.76576400
C           2.69470800     -1.57137000      0.35067100
C           3.60130000      1.06595400     -0.33398100
C           2.46266500      0.97322800      0.36866400
H          -0.27143200      0.23464900      0.57989300
H           0.01592700     -1.51068400      0.45532800
H           0.45647700     -0.43792800     -0.90266500
H           1.30709900     -1.37961500      2.66767100
H           2.72012900     -0.30086200      2.82342100
H           1.07384300      0.37658400      2.73682000
H           0.68197600      2.23490600      0.43833800
H           2.21887600      3.11976100      0.31627100
H           1.72683300      2.38217100      1.86064300
H           2.77705000     -1.62434900     -0.74676500
H           3.71317300     -1.53286900      0.76781800
H           2.22811200     -2.50760800      0.69767500
H           4.18248400      0.19899500     -0.64761000
H           3.99497600      2.04390700     -0.62583100
