20
b3lypvdz=-236.902601992382 
C          -0.48913700      0.81109500      0.42135300
C           0.44708300     -0.39126900      0.20505200
C          -1.79351900      0.69708700     -0.40962700
C          -2.57869200     -0.58703400     -0.08977300
C           0.27632900      2.11658200      0.14103200
C          -2.71126100      1.92005700     -0.23630500
H          -0.78327400      0.81808800      1.49034600
H           1.37997400     -0.26850300      0.77923600
H          -0.01109900     -1.33774000      0.53080800
H           0.72128500     -0.49573300     -0.86033100
H          -1.49687200      0.64963500     -1.47696200
H          -3.51713700     -0.62294600     -0.66647600
H          -2.84367400     -0.63548600      0.98223600
H          -2.00827600     -1.49513200     -0.33967800
H           1.22407400      2.13924600      0.70321800
H           0.52252700      2.21173200     -0.93233200
H          -0.29836900      3.00746100      0.43837400
H          -3.65376300      1.78155900     -0.79109000
H          -2.96967900      2.07776500      0.82664500
H          -2.24721900      2.84423600     -0.61332600
