20
b3lypvdz=-236.902900077813 
C          -0.43039600      0.79048400      0.45651600
C           0.40262500     -0.46916000      0.14519700
C          -1.76915700      0.81304800     -0.29737600
C           0.34692300      2.09374200      0.16888600
C          -0.32463100     -1.80322000      0.35474900
C           1.71901100      2.23487800      0.83647200
H          -0.65908300      0.77157700      1.54213200
H           1.30485400     -0.46004700      0.78018600
H           0.76800200     -0.41216600     -0.89907500
H          -2.43309800     -0.01205000      0.00431800
H          -2.31152600      1.75516100     -0.10965400
H          -1.61019600      0.73309000     -1.38836800
H           0.46599300      2.19819600     -0.92733000
H          -0.28975800      2.94143900      0.48262800
H          -1.14181100     -1.95390600     -0.36858400
H           0.37348300     -2.64908000      0.24062500
H          -0.76615800     -1.86770800      1.36514700
H           2.44416800      1.49358000      0.46325800
H           2.14575800      3.23195600      0.63637300
H           1.65619900      2.11438600      1.93259900
