21
b3lypvdz=-274.962298853388 
C          -0.51474200      0.78349400      0.42779200
C           0.44456600     -0.36717000      0.08815600
C          -1.88323100      0.71021700     -0.27048500
C           1.84498000     -0.26766600      0.73417500
C          -2.67646300     -0.57858200     -0.02010000
C           3.75391200      0.97048900     -0.35511700
C           2.62675600      0.96470600      0.36245200
H          -0.04212900      1.74373000      0.15445200
H          -0.66831600      0.81751600      1.52472200
H          -0.00557000     -1.32149400      0.41406200
H           0.56310100     -0.43590700     -1.00982100
H          -2.48785100      1.57527800      0.05783800
H          -1.73781000      0.84074800     -1.36016900
H           1.72727200     -0.30429000      1.83532200
H           2.43177100     -1.15860600      0.44977500
H          -3.66925700     -0.53120900     -0.49630500
H          -2.83046700     -0.75614000      1.05936400
H          -2.16254400     -1.46327700     -0.43120100
H           4.19933300      0.03972600     -0.72409500
H           4.27690800      1.89948500     -0.59981500
H           2.22488100      1.92305000      0.71749700
