20
b3lypvdz=-236.903717517513 
C           0.54764100     -0.49938800      0.18960200
C          -2.62647600     -0.46045000     -0.02682400
C          -3.81565300     -0.39435300     -0.99636500
C          -3.11103400     -0.53419100      1.42817400
C          -0.35501300     -1.73012100      0.34388600
C          -1.70542100     -1.64269800     -0.38857800
H           0.12357700      0.38844300      0.68774300
H           1.53979000     -0.68136700      0.63485400
H           0.70022400     -0.23918000     -0.87296600
H          -2.04940800      0.47609500     -0.14807700
H          -4.48902200      0.44633800     -0.75774400
H          -4.41676900     -1.32090300     -0.95289700
H          -3.47288200     -0.26783900     -2.03747200
H          -3.76005400      0.32187800      1.67905000
H          -3.70201200     -1.45276800      1.59756500
H          -2.27308100     -0.53826600      2.14461000
H           0.17932000     -2.61502600     -0.04663800
H          -0.51665200     -1.93098300      1.41864900
H          -2.26653000     -2.57953000     -0.19976200
H          -1.51184500     -1.61789200     -1.47781000
