20
b3lypvdz=-236.904781021529 
C          -0.52626800      0.71880200      0.34867500
C           0.43262000     -0.45889000      0.08071100
C          -1.88204500      0.65862400     -0.36570800
C           1.72369700     -0.29634700      0.89441100
C          -0.20411300     -1.83116700      0.34793500
C          -2.66275100      1.97343800     -0.27735300
H          -0.00926200      1.64996700      0.04619400
H          -0.69754800      0.81184500      1.43971700
H           0.70405900     -0.42269400     -0.99296600
H          -2.49331000     -0.15645100      0.06086300
H          -1.72618900      0.39742300     -1.42979600
H           1.52074500     -0.36939100      1.97832700
H           2.46013500     -1.07759200      0.64195300
H           2.19824000      0.68262200      0.70865400
H          -1.06328300     -2.02349100     -0.31352200
H           0.52720500     -2.64014700      0.18030300
H          -0.55962900     -1.91249200      1.39132700
H          -3.63432900      1.90323000     -0.79260400
H          -2.85942800      2.25765500      0.77110400
H          -2.09984400      2.80105400     -0.74302600
