16
b3lypvdz=-271.603233566492 
C           1.98018300     -0.34467200      0.97321800
C           1.50814100     -0.51827700      2.42126300
O           5.22746700     -0.28524400     -1.93834500
C           2.94755600     -1.44910100      0.52126900
C           3.32987600     -1.41512700     -0.97715400
C           4.15419200     -0.21651800     -1.38515300
H           1.10230100     -0.33446500      0.29968600
H           2.46636500      0.64299600      0.86815600
H           1.00626800     -1.49271500      2.56207800
H           2.35376700     -0.47156900      3.12938900
H           0.78976800      0.26755300      2.70738100
H           3.86887900     -1.40251700      1.13229800
H           2.48973600     -2.43224500      0.73550300
H           3.89176800     -2.31733700     -1.26590500
H           2.39946400     -1.38361900     -1.57972000
H           3.69377000      0.78415700     -1.15946500
