23
b3lypvdz=-276.186874599009 
C          -0.38912000      0.77568400      0.49204500
C           0.45324800     -0.47616700      0.20816300
C          -1.74300300      0.76926100     -0.25020000
C          -2.65523700     -0.45435400     -0.06842000
C          -3.11678000     -0.70447300      1.37109400
C           0.35123200      2.08751400      0.15074100
C           1.73377700      2.27588100      0.78239700
H          -0.59532700      0.78806800      1.58058800
H           1.38831900     -0.47379000      0.78914700
H          -0.09196500     -1.39401000      0.48109000
H           0.72439500     -0.55416300     -0.86056100
H          -2.30382100      1.67274200      0.05877100
H          -1.54006800      0.89862600     -1.33125500
H          -3.54047300     -0.31286400     -0.71349800
H          -2.15045800     -1.35721600     -0.45720900
H          -3.61533000      0.18726100      1.79118300
H          -3.83545100     -1.53924400      1.42461900
H          -2.27447000     -0.95324500      2.03794100
H           0.44473000      2.16061500     -0.95069300
H          -0.29920100      2.93052000      0.44962800
H           2.46072800      1.53001900      0.42130100
H           2.14156800      3.26974200      0.53339400
H           1.69840700      2.19689400      1.88343500
