17
b3lypvdz=-197.620587494614 
C          -0.44343900      0.84581900      0.44628200
C          -1.76437900      0.74814900     -0.32753300
C          -2.55070700     -0.53468600     -0.02901500
C           0.32702900      2.14864300      0.18507200
C           1.71861800      2.17483100      0.83021500
H           0.19698500     -0.01539400      0.17330700
H          -0.64487600      0.74955700      1.53083500
H          -2.39501700      1.62683200     -0.09401600
H          -1.54736800      0.80120600     -1.41094900
H          -3.47349100     -0.59018200     -0.62912100
H          -2.83969500     -0.58703200      1.03513800
H          -1.94834600     -1.43174500     -0.25690800
H           0.43125200      2.29401100     -0.90670900
H          -0.26838300      3.00396500      0.55550900
H           2.34620400      1.34932700      0.45260900
H           2.24545600      3.11932600      0.61184800
H           1.65515800      2.07087400      1.92783500
