23
b3lypvdz=-276.187556133196 
C          -0.47088700      0.65992100      0.65448800
C           0.50076200     -0.44218300      0.20099200
C          -1.74874000      0.78877100     -0.18971700
C           1.91701100     -0.24538900      0.75865600
C          -2.57231800     -0.49608500     -0.32002400
C           2.88657800     -1.40948500      0.50420400
C           3.19740300     -1.67210400     -0.97305100
H           0.05707600      1.63118100      0.62536500
H          -0.74139900      0.49349600      1.71471300
H           0.11837900     -1.43077300      0.51527600
H           0.53717900     -0.46438300     -0.90386000
H          -2.38033300      1.58131000      0.25025100
H          -1.47177200      1.14630300     -1.19943300
H           1.85264300     -0.07138600      1.84903300
H           2.34210800      0.68348600      0.33198000
H          -3.48876100     -0.31729600     -0.90612700
H          -2.87840500     -0.88566400      0.66665700
H          -2.00652300     -1.29266900     -0.83035300
H           3.82987100     -1.19573600      1.03832200
H           2.47764100     -2.32828100      0.96481600
H           3.59623900     -0.76683200     -1.46332000
H           3.95047000     -2.46928700     -1.08787800
H           2.30227900     -1.98711300     -1.53419100
