23
b3lypvdz=-276.189288986974 
C          -0.38264400      0.79331000      0.19932700
C           0.57887000     -0.39700900      0.06851200
C          -1.76727300      0.52950500     -0.40231900
C           1.85556500     -0.28276100      0.91771000
C           1.61720900     -0.46888500      2.41914200
C          -2.73166500      1.71468600     -0.27601300
C          -4.15479400      1.39547000     -0.74023700
H           0.06898200      1.68309400     -0.27832200
H          -0.50834600      1.05917400      1.26507500
H           0.04517200     -1.32479600      0.35108300
H           0.85664400     -0.52294900     -0.99371900
H          -2.20980600     -0.35131000      0.10071800
H          -1.66498700      0.24514100     -1.46742200
H           2.58236700     -1.04030300      0.57486600
H           2.33497200      0.69764100      0.73522500
H           1.15216400     -1.44996100      2.62549200
H           2.56003500     -0.42097200      2.98747600
H           0.94498400      0.29933300      2.83493500
H          -2.75970800      2.04566000      0.77920400
H          -2.33425100      2.57292700     -0.84866100
H          -4.58033800      0.55379600     -0.16765200
H          -4.17961300      1.10944700     -1.80648600
H          -4.82663800      2.25996100     -0.60813500
