21
b3lypvdz=-274.962682485067 
C          -0.51158900      0.81653800      0.32277700
C           0.38855800     -0.39436500     -0.00272600
C          -1.93996900      0.74725700     -0.23018600
C           1.76966800     -0.29309400      0.69505400
C          -0.26193500     -1.73791900      0.35993500
C           3.74379100      0.93904900     -0.26752400
C           2.57604400      0.93817800      0.38219800
H          -0.02449400      1.72506700     -0.07144400
H          -0.55646100      0.94776000      1.42169500
H           0.57202000     -0.39144100     -1.09461000
H          -2.52838700     -0.05715200      0.23940800
H          -2.47826500      1.69182900     -0.04399800
H          -1.94704400      0.57095800     -1.32061200
H           1.60173300     -0.34904700      1.78933000
H           2.36436200     -1.18299300      0.42356200
H          -1.16948300     -1.92952200     -0.23269200
H           0.43521400     -2.57238000      0.17397200
H          -0.54372800     -1.77178700      1.42790800
H           4.19838700      0.00718500     -0.62103900
H           4.29304400      1.86329600     -0.46737200
H           2.16563400      1.89578100      0.72676400
