17
b3lypvdz=-197.61998140026 
C          -0.39219600      0.86071500      0.52514700
C          -1.66746800      0.79542700     -0.32450100
C          -2.53416300     -0.46423900     -0.12358300
C          -3.79254800     -0.39010100     -1.00171200
C          -1.76776900     -1.76989200     -0.38952100
H           0.33479200      0.08369200      0.23708800
H           0.10935300      1.83568200      0.40381900
H          -0.61991700      0.73207700      1.59832900
H          -2.29067100      1.68002000     -0.09728200
H          -1.39468000      0.87934000     -1.39468200
H          -2.86348600     -0.47753400      0.93458800
H          -4.37318000      0.52601800     -0.79750600
H          -4.45705300     -1.25274200     -0.82462100
H          -3.52224400     -0.38624800     -2.07326600
H          -0.92547200     -1.90597100      0.30735500
H          -2.43312700     -2.64252500     -0.27297900
H          -1.36267100     -1.79172100     -1.41747400
