17
b3lypvdz=-197.618743918104 
C          -0.45266200      0.87745300      0.39886600
C           0.35240700     -0.38261700      0.05613900
C           0.37128700      2.16479300      0.29968100
C          -0.35615200     -1.71449700      0.35476000
C          -1.73505200     -1.88489800     -0.29351200
H          -1.32796300      0.95293600     -0.27082100
H          -0.86417500      0.78432900      1.42228500
H           1.30136100     -0.36346000      0.62328000
H           0.63963400     -0.34616400     -1.01275000
H           1.22086500      2.15533500      1.00437700
H           0.79239500      2.29814000     -0.71237100
H          -0.24064000      3.05329200      0.52773600
H           0.30262600     -2.53929400      0.02737800
H          -0.45748400     -1.82883400      1.45106000
H          -2.46431100     -1.15258000      0.09082400
H          -2.14620700     -2.88764700     -0.08911800
H          -1.68972900     -1.75928700     -1.39031200
