15
b3lypvdz=-196.398097017775 
C           0.34139600     -0.48903500      0.22912000
C           1.81125300     -0.35430100      0.65590100
C           1.73756600      2.23189900      0.72960400
C           3.63705600      1.02661500     -0.32426700
C           2.45939100      0.97355100      0.31294300
H          -0.30305700      0.24631600      0.73664000
H          -0.04578300     -1.48878600      0.48464900
H           0.22237500     -0.34638700     -0.85833400
H           1.87286400     -0.50343100      1.75222100
H           2.40269700     -1.16495500      0.20019100
H           0.78545600      2.35012200      0.18437500
H           2.34945100      3.12497200      0.53391600
H           1.47854200      2.21455200      1.80388000
H           4.15835800      0.11764900     -0.63641400
H           4.12103500      1.98011700     -0.55332400
