18
b3lypvdz=-235.681780593595 
C           1.90294900     -0.38134600      0.82273500
C           1.68927600     -0.46564500      2.34157400
C           0.22544000      2.19889500      0.29168500
C           1.71460700      2.20870100      0.67600100
C           3.60701300      0.98149700     -0.37463200
C           2.46993300      0.93760000      0.33391200
H           0.93509300     -0.56771700      0.31987100
H           2.57317300     -1.19351600      0.49674700
H           1.31436000     -1.46239900      2.62689200
H           2.63095400     -0.28805000      2.88760600
H           0.95348600      0.27239300      2.69918700
H          -0.33347800      1.41146000      0.82165900
H           0.09166700      2.03234900     -0.79049600
H          -0.24967100      3.15962300      0.54923900
H           2.21617200      3.05668800      0.18232500
H           1.79666400      2.39446100      1.76424300
H           4.17160800      0.07482100     -0.61111100
H           4.01255500      1.92728400     -0.74573700
