23
b3lypvdz=-276.185684509819 
C          -0.40233100      0.80082800      0.45796600
C           0.47552700     -0.42839300      0.13401300
C           1.85030300     -0.42718000      0.85900200
C           1.74868100     -0.36447500      2.39166600
C           0.25888000      2.16898700      0.23916800
C          -0.33935500     -1.71581700      0.34981400
C           2.72931500     -1.61705500      0.43481600
H          -1.30558200      0.74152200     -0.17549700
H          -0.76639400      0.73397500      1.50037100
H           0.70557500     -0.37486400     -0.94923500
H           2.37967500      0.48433200      0.52725700
H           1.25991700     -1.26246900      2.80608700
H           2.75382800     -0.30148900      2.84091800
H           1.18207900      0.51413800      2.73888500
H           1.07059200      2.35936800      0.95913600
H           0.68544100      2.25170300     -0.77623200
H          -0.47992200      2.97917200      0.36071100
H          -1.27199200     -1.67959100     -0.23683300
H           0.21149900     -2.61283700      0.02613600
H          -0.62354000     -1.85259900      1.40733100
H           2.78630200     -1.70929200     -0.66355500
H           3.75776400     -1.49470900      0.81393000
H           2.34513800     -2.56985700      0.83574400
