17
b3lypvdz=-197.61974818686 
C          -0.41985600      0.82430000      0.45996900
C           0.46763800     -0.40194800      0.15956900
C          -1.73579900      0.73735300     -0.33001700
C           1.83877300     -0.41915600      0.84937000
C           0.28484700      2.16237600      0.18488000
H          -0.67368200      0.79561900      1.53809100
H          -0.09151000     -1.30834600      0.45735200
H           0.61487800     -0.47990300     -0.93511600
H          -2.26603900     -0.20959500     -0.12849100
H          -2.41715800      1.56371000     -0.06561200
H          -1.54686900      0.79298400     -1.41736600
H           1.74369700     -0.29700100      1.94290300
H           2.35623200     -1.37578300      0.66422800
H           2.49667700      0.38249300      0.47587500
H           1.15700800      2.31276100      0.84067300
H           0.63410500      2.22175900     -0.86194300
H          -0.40364300      3.00727700      0.35763600
