18
b3lypvdz=-235.683294326543 
C           0.26882600     -0.40659700      0.20816800
C           1.73469100     -0.31522600      0.67526200
C          -0.30840300     -1.81241900      0.38774500
C           1.76373000      2.27372800      0.69432800
C           3.64575900      0.96367100     -0.26695200
C           2.44786400      0.97700900      0.33247800
H          -0.34712700      0.32070800      0.76698700
H           0.20330800     -0.11057000     -0.85536400
H           1.75391700     -0.46253500      1.77506300
H           2.30405900     -1.15503100      0.24164200
H          -1.36235400     -1.86261100      0.06750900
H           0.25469600     -2.55052100     -0.20849200
H          -0.25847500     -2.13533900      1.44274300
H           0.83560300      2.41456600      0.11265300
H           2.41739200      3.13677900      0.49603500
H           1.46554000      2.29595100      1.75863600
H           4.13561500      0.02411600     -0.53870500
H           4.17935800      1.88882000     -0.50363800
