17
b3lypvdz=-197.617887427979 
C          -0.42937000      0.79030800      0.41022400
C           0.50034700     -0.40981800      0.18923300
C          -1.76750300      0.71657700     -0.34589100
C          -2.64948700     -0.50917900     -0.04949800
C          -3.10866400     -0.62558800      1.40985000
H           0.09354800      1.71024000      0.09072200
H          -0.61652600      0.91047500      1.49280600
H           1.46952900     -0.25167800      0.69032100
H           0.07030500     -1.34080900      0.59533500
H           0.69950200     -0.57267500     -0.88453400
H          -2.34975500      1.63092400     -0.12155000
H          -1.55906400      0.74576700     -1.43246300
H          -3.54062100     -0.45720800     -0.70044500
H          -2.11762900     -1.43241700     -0.34415800
H          -3.62788100      0.29178900      1.73925200
H          -3.80879500     -1.46818100      1.53920100
H          -2.26123600     -0.79482700      2.09469700
