15
b3lypvdz=-196.393229383025 
C          -0.53314500      0.78413700      0.52188000
C           0.38085800     -0.39131600      0.15218000
C           1.81416300     -0.30564600      0.72213400
C           3.65726200      0.99092400     -0.41356000
C           2.56430000      0.94878800      0.35549500
H          -1.55704200      0.61476800      0.14864000
H          -0.17692400      1.73087300      0.08250900
H          -0.59251200      0.92156200      1.61632300
H          -0.07789100     -1.32972600      0.51367600
H           0.43643500     -0.47518100     -0.94868000
H           1.75777200     -0.37243300      1.82740500
H           2.38828300     -1.18602000      0.38411900
H           4.09352000      0.08067800     -0.83923100
H           4.15769400      1.93704000     -0.64170500
H           2.17402600      1.88955000      0.76551500
