14
b3lypvdz=-158.335211471415 
C          -0.49591500      0.78860700      0.38172300
C           0.45690800     -0.39557200      0.18260800
C          -1.79548000      0.66381600     -0.42065700
C          -2.71679900      1.87987500     -0.26904800
H           0.02032500      1.72466600      0.09564200
H          -0.74369400      0.88649500      1.45560300
H           1.36975600     -0.28398000      0.78993600
H          -0.02517400     -1.34623000      0.47154600
H           0.76600100     -0.48501100     -0.87333900
H          -2.33452200     -0.24711400     -0.09893100
H          -1.54978000      0.51812000     -1.48975200
H          -3.63966600      1.76191400     -0.85982700
H          -3.01039700      2.02917200      0.78464100
H          -2.21516400      2.80224100     -0.61014500
