21
b3lypvdz=-274.989373068645 
C          -0.49253100      0.95039600      0.56587900
C          -1.65769300      0.72439300     -0.39286900
C          -2.48914200     -0.55207600     -0.13493100
C          -3.75157500     -0.30331000     -0.97788600
C          -2.71480600      1.85274800     -0.36010500
C          -1.77950700     -1.87201000     -0.43178100
C          -4.05606900      1.20546200     -0.81307400
H           0.26844100      0.15587800      0.48512700
H           0.01536500      1.90832900      0.36085700
H          -0.84638300      0.97693900      1.61225900
H          -1.26121100      0.64531000     -1.42507600
H          -2.78561000     -0.54516900      0.93440100
H          -4.59465600     -0.94837700     -0.68210100
H          -3.51994900     -0.53623600     -2.03397600
H          -2.80657000      2.23496900      0.67176500
H          -2.41806200      2.71090300     -0.98441100
H          -0.90244300     -2.02263600      0.21818100
H          -2.45513000     -2.72994500     -0.27694300
H          -1.42941500     -1.90592700     -1.47929800
H          -4.43862900      1.64765400     -1.74586800
H          -4.83642500      1.36620800     -0.05145000
