20
b3lypvdz=-236.90282834426 
C          -0.39181800      0.81858200      0.46345000
C           0.53142300     -0.34983000      0.07874600
C           1.88280400     -0.37300300      0.80300500
C           0.20265000      2.21788500      0.25331900
C           2.76455000     -1.58760400      0.47031900
C           3.35734000     -1.56812100     -0.94444200
H          -1.32243300      0.73031100     -0.12508400
H          -0.69430800      0.71194100      1.52247200
H          -0.00051200     -1.29517300      0.30128400
H           0.69277100     -0.34281600     -1.01566000
H           1.69958200     -0.34911900      1.89403900
H           2.45071900      0.54740900      0.56700400
H           1.04270600      2.41743100      0.93863100
H           0.58148600      2.34881300     -0.77650100
H          -0.55679300      2.99729200      0.43372000
H           3.59273000     -1.63919400      1.19960800
H           2.17516100     -2.51343700      0.61771900
H           3.96104800     -0.65726100     -1.10768000
H           4.01843800     -2.43406600     -1.11680200
H           2.57705600     -1.59053900     -1.72364400
