14
b3lypvdz=-158.335345508337 
C          -0.41844500      0.82828800      0.43745000
C           0.32974600      2.14530700      0.18560400
C          -1.75003600      0.73048300     -0.31755300
C           1.71944600      2.19129900      0.83408000
H           0.23023000     -0.01972500      0.14621000
H          -0.60299500      0.71785300      1.52281700
H           0.43125200      2.30149900     -0.90510300
H          -0.28090000      2.98720000      0.56287900
H          -2.27315400     -0.21382600     -0.09003900
H          -2.42725900      1.55903700     -0.04552700
H          -1.59092900      0.77307000     -1.40950100
H           2.36389500      1.38190900      0.45022000
H           2.22854700      3.14804500      0.62708100
H           1.65520200      2.07526100      1.93058000
