17
b3lypvdz=-197.61861963814 
C          -0.45759800      0.87407700      0.44866300
C          -1.74316400      0.69851800     -0.37875900
C           0.32061200      2.17238400      0.18353300
C          -2.74885100      1.85328500     -0.28536900
C           1.71411000      2.17581700      0.82624200
H           0.20500000      0.01331400      0.23924000
H          -0.70397700      0.81505700      1.52718800
H          -2.23881000     -0.23549100     -0.05753200
H          -1.46599300      0.54883800     -1.43975900
H           0.42636000      2.32172800     -0.90808600
H          -0.25527500      3.03549200      0.56252300
H          -3.67311800      1.60952700     -0.83555000
H          -3.02849200      2.06383700      0.76191800
H          -2.34525000      2.78288700     -0.71975400
H           2.33594500      1.35496700      0.42902100
H           2.24619300      3.12172300      0.62701400
H           1.65240800      2.04804000      1.92136700
