20
b3lypvdz=-236.90323519621 
C          -2.50747500     -0.46896400      0.03900900
C          -3.63835300     -0.20752400     -0.97880000
C          -3.05322000     -0.55091700      1.47395600
C          -0.34727900     -1.86919100      0.37123600
C          -1.70787300     -1.73679200     -0.32920600
C          -4.23482500      1.20742000     -0.92473800
H          -1.80801300      0.39058700     -0.01859100
H          -4.44231900     -0.95208600     -0.82517900
H          -3.24748200     -0.38329500     -1.99816400
H          -3.58748800      0.36959100      1.76241700
H          -3.76396900     -1.39106100      1.57364000
H          -2.24817100     -0.70400500      2.21061300
H           0.28580400     -0.98586600      0.17287200
H           0.19750000     -2.75499200      0.00355800
H          -0.44633600     -1.97420900      1.46483300
H          -2.32689400     -2.62878800     -0.11140600
H          -1.53407600     -1.74112400     -1.42100000
H          -3.45917900      1.97093200     -1.10942700
H          -5.01701400      1.33796800     -1.69113500
H          -4.69683900      1.42721800      0.05271100
