15
b3lypvdz=-196.39843023816 
C           1.82641600     -0.34064400      0.85290000
C           1.77232400     -0.48134100      2.38109700
C           1.69776800      2.23405600      0.74218300
C           3.53049800      0.99036700     -0.38677500
C           2.41845900      0.96386500      0.35996600
H           0.79837500     -0.43829900      0.45243400
H           2.40492000     -1.17579900      0.42527400
H           1.37217400     -1.46814500      2.66653800
H           2.77696400     -0.38135200      2.82526900
H           1.12424100      0.27815300      2.84715800
H           0.62613300      2.18337800      0.47501600
H           2.13524300      3.10906600      0.23991200
H           1.73993400      2.41015900      1.83232800
H           4.05654600      0.07230400     -0.66334300
H           3.94850700      1.93183100     -0.75455700
