14
b3lypvdz=-158.333724597776 
C          -0.46956000      0.78229700      0.42457100
C           0.40096900     -0.45848700      0.15823000
C          -0.28686800     -1.80435000      0.42521200
C          -1.77771800      0.83785000     -0.37353100
H           0.13053300      1.68142200      0.19335200
H          -0.70355000      0.83897500      1.50500800
H           1.30820700     -0.38842500      0.78471100
H           0.75259000     -0.43584200     -0.89066200
H          -1.12097700     -1.98540000     -0.27181900
H           0.42753700     -2.63619800      0.30382400
H          -0.69056500     -1.85418500      1.45213100
H          -2.47014200      0.03053500     -0.08254100
H          -2.30165400      1.79328000     -0.20198900
H          -1.58890200      0.74772700     -1.45819700
