11
b3lypvdz=-231.10227877923 
C           1.78422200     -0.37057600      0.82558800
O           5.20112600      0.02196400     -1.83261200
C           4.27210600     -0.12808600     -1.06187400
C           3.51088800      0.99416100     -0.48694800
C           2.44570800      0.88193000      0.33253700
H           0.73796500     -0.40702900      0.47255000
H           1.74159900     -0.37039600      1.92926700
H           2.28391800     -1.29177100      0.49971700
H           3.95390200     -1.15563400     -0.75263000
H           3.87849700      1.98152100     -0.78601500
H           1.98217000      1.81301800      0.68501800
