17
b3lypvdz=-197.619779674226 
C          -0.39423300      0.82338000      0.45795100
C           0.45906100     -0.41349700      0.11449400
C           1.81390200     -0.43295900      0.83737800
C           0.27748000      2.17842900      0.19696900
C          -0.33049500     -1.70202600      0.38971100
H          -1.32851800      0.77040600     -0.12971600
H          -0.69918600      0.76954200      1.52137900
H           0.66444500     -0.37778700     -0.97479300
H           1.68545600     -0.38304100      1.93432600
H           2.36579900     -1.36050800      0.60768000
H           2.45441100      0.41062100      0.53343600
H           1.13120200      2.35206200      0.87143500
H           0.64882700      2.24972500     -0.84075300
H          -0.43769800      3.00318200      0.35557600
H          -1.28298100     -1.71306800     -0.16561800
H           0.24383200     -2.59448100      0.08829600
H          -0.56740400     -1.80248000      1.46444900
