23
b3lypvdz=-276.188567473911 
C          -0.38573200      0.73974600      0.53000600
C           0.47678300     -0.50583400      0.27530200
C          -1.72014000      0.77954700     -0.23268600
C           1.92432100     -0.33839700      0.74478300
C          -2.66199000     -0.43302500     -0.08543100
C          -3.82222000     -0.32062800     -1.08332700
C          -3.18032700     -0.60254000      1.34832500
H           0.19301600      1.63353600      0.23033300
H          -0.55617800      0.84858200      1.61702500
H           0.02468200     -1.38035300      0.77628600
H           0.47097800     -0.74329900     -0.80547300
H          -2.27527300      1.68794300      0.07250200
H          -1.49561200      0.90945300     -1.30802400
H           1.97903600     -0.10777300      1.82335500
H           2.51853100     -1.25025700      0.56676600
H           2.41960900      0.48878900      0.20869300
H          -2.08977500     -1.34232400     -0.35024800
H          -4.43033700      0.58111400     -0.88759800
H          -4.49743000     -1.19087800     -1.02545300
H          -3.44867100     -0.24930800     -2.11889000
H          -3.72218600      0.30165100      1.68079400
H          -3.88319000     -1.44954000      1.42272200
H          -2.36369600     -0.78300400      2.06563700
