17
b3lypvdz=-197.618479033555 
C          -0.41651800      0.89228100      0.48863100
C          -1.72120200      0.73230900     -0.30270100
C          -2.53433300     -0.55533400     -0.03534000
C          -3.10620700     -0.60632500      1.39077300
C          -1.75229800     -1.84032800     -0.35544200
H           0.30178200      0.08629900      0.26352400
H           0.07369600      1.84567200      0.22861000
H          -0.59201500      0.89749400      1.57766700
H          -2.37443500      1.60081200     -0.09478000
H          -1.48506200      0.78166500     -1.38266100
H          -3.39858500     -0.51891800     -0.72610300
H          -3.67695600      0.30797600      1.62869900
H          -3.79102800     -1.46359500      1.50934400
H          -2.31012700     -0.71522300      2.14695900
H          -0.91309800     -1.99439600      0.34328300
H          -2.41065100     -2.72270700     -0.27589700
H          -1.33876200     -1.82108100     -1.37876600
