20
b3lypvdz=-236.903042778323 
C          -0.45863400      0.74221200      0.46586000
C           0.47324600     -0.44376300      0.17340000
C          -1.77795800      0.73388000     -0.32542900
C           1.84882400     -0.35398000      0.85473700
C          -2.65887000     -0.50193400     -0.09795700
C           1.80280900     -0.42072600      2.38646100
H           0.08121100      1.68078500      0.23680200
H          -0.69345500      0.77580000      1.54613000
H          -0.01404200     -1.38637800      0.48435900
H           0.62403700     -0.51911000     -0.92003800
H          -2.35396100      1.63765400     -0.05483800
H          -1.55250000      0.82514100     -1.40499300
H           2.48109900     -1.17984200      0.48099100
H           2.35219000      0.58038500      0.54096900
H          -3.62127000     -0.39972200     -0.62572500
H          -2.87763900     -0.64866200      0.97458000
H          -2.17796000     -1.42105700     -0.47195000
H           1.27503400     -1.32825100      2.73058000
H           2.82036400     -0.44546200      2.81002800
H           1.28667400      0.44902900      2.82483200
