20
b3lypvdz=-236.904881038029 
C          -0.36781500      0.84776000      0.32419100
C           0.48014600     -0.42169600      0.16910100
C          -1.76501000      0.72182300     -0.28664500
C           1.83946400     -0.38490800      0.89714300
C           1.67191100     -0.47954100      2.41975800
C           2.76377000     -1.50141600      0.39624100
H           0.16814600      1.69557600     -0.14134600
H          -0.46458800      1.10613300      1.39357400
H          -0.09393700     -1.29391900      0.53871200
H           0.64749900     -0.61056600     -0.90775900
H          -2.32246700     -0.11374000      0.16993800
H          -2.36061600      1.63698900     -0.13162800
H          -1.72147300      0.53024300     -1.37296400
H           2.32238300      0.58410800      0.66145400
H           1.16251500     -1.42157600      2.69500400
H           2.64676700     -0.47065100      2.93346400
H           1.07186500      0.34578100      2.83339700
H           2.96458800     -1.40699000     -0.68386400
H           3.73217500     -1.48779400      0.92243000
H           2.30987800     -2.49441700      0.56669800
