20
b3lypvdz=-236.905909567109 
C          -0.47520700      0.73535200      0.34444900
C           0.45441400     -0.46090300      0.09534800
C          -1.80296700      0.65828700     -0.41867400
C           1.80492700     -0.34552700      0.81272900
C          -2.68339600      1.89827700     -0.22028600
C           2.75733900     -1.50651100      0.50591100
H           0.05185800      1.66609200      0.05810900
H          -0.68396700      0.81888700      1.42824500
H          -0.05049000     -1.39126400      0.41934000
H           0.62876200     -0.56542100     -0.99290700
H          -2.35909300     -0.24220300     -0.09740500
H          -1.59347200      0.52603500     -1.49682700
H           1.63307700     -0.29066400      1.90395900
H           2.28806200      0.60748900      0.52601600
H          -3.62222700      1.82100400     -0.79217800
H          -2.94818200      2.03503100      0.84264400
H          -2.16144400      2.81190500     -0.55474500
H           2.99785900     -1.55068400     -0.57052800
H           3.70572900     -1.40353600      1.05797500
H           2.30811900     -2.47504400      0.78822200
