14
b3lypvdz=-270.386985786026 
C           1.82314800     -0.37483800      0.86756600
C           1.66957100     -0.42375300      2.39572500
O           5.08317200      0.03999900     -2.00263800
C           4.21140900     -0.12422600     -1.17021500
C           3.54026700      0.98826200     -0.47515000
C           2.51845400      0.87270600      0.39819900
H           0.81391000     -0.38936400      0.41308100
H           2.33503000     -1.27989400      0.50913100
H           1.12120100     -1.32821300      2.70358600
H           2.65081600     -0.43141400      2.89691900
H           1.10679400      0.44746500      2.77132500
H           3.87456100     -1.15703400     -0.90112400
H           3.93145500      1.97606500     -0.74196100
H           2.11341300      1.80183900      0.82415600
