15
b3lypvdz=-196.394214714954 
C           1.91984900     -0.42179900      0.85437400
C           1.75329400     -0.36414300      2.38399200
C           2.72525600     -1.65140600      0.42393900
C           3.53410000      1.08243900     -0.44030200
C           2.46949500      0.89257800      0.34560000
H           0.90199300     -0.52566400      0.42458900
H           1.30437200     -1.29530100      2.76807400
H           2.73015900     -0.22490700      2.87877100
H           1.10026400      0.46946600      2.69007100
H           2.77843300     -1.74389000     -0.67283300
H           3.75749500     -1.60916100      0.81190200
H           2.25899400     -2.57074300      0.81487000
H           4.14109500      0.25506300     -0.81693900
H           3.83891100      2.08824900     -0.74275500
H           1.91289100      1.77651800      0.68734700
