17
b3lypvdz=-197.620599832078 
C          -0.45036300      0.80133400      0.31680500
C           0.55562400     -0.34527000      0.21359500
C          -1.78676900      0.51859200     -0.37731800
C          -2.79566800      1.66351400     -0.23671100
C          -4.15458100      1.38609700     -0.88184300
H          -0.00905000      1.72181100     -0.10865400
H          -0.64178600      1.02798800      1.38303100
H           1.47801900     -0.12565300      0.77546800
H           0.13600200     -1.28331900      0.61702900
H           0.84409300     -0.54043100     -0.83374900
H          -2.22531000     -0.40770300      0.04187900
H          -1.60766500      0.30581700     -1.44960900
H          -2.93823500      1.88095400      0.83892300
H          -2.36073800      2.58369000     -0.66980400
H          -4.61562500      0.47512500     -0.46247800
H          -4.06805100      1.23567700     -1.97225100
H          -4.85729900      2.21927800     -0.71441300
