20
b3lypvdz=-236.901967489814 
C          -0.41864700      0.85922400      0.48460600
C           0.40233000     -0.39455300      0.13611000
C           1.77424300     -0.39997500      0.84926500
C           1.73742900     -0.42466500      2.38383600
C          -0.36757800     -1.71093200      0.37334200
C          -1.70926200     -1.82577000     -0.36323300
H          -1.28479800      0.97511000     -0.18572800
H           0.19744300      1.76939200      0.38046200
H          -0.80233600      0.82858200      1.51907300
H           0.62027400     -0.34391400     -0.94895000
H           2.35520200     -1.27048900      0.49164000
H           2.33922800      0.49285700      0.52309500
H           1.25338400     -1.33533300      2.77341800
H           2.76082000     -0.39963900      2.79246900
H           1.19885100      0.44285300      2.79918500
H           0.28227600     -2.54956400      0.06041300
H          -0.54798700     -1.84906400      1.45555900
H          -2.44975000     -1.10325100      0.01702100
H          -2.14053700     -2.83263100     -0.23145400
H          -1.59188200     -1.65073800     -1.44753100
