17
b3lypvdz=-197.621565197576 
C          -1.68358600      0.75767800     -0.25176600
C          -2.57552400     -0.48455300     -0.07257700
C          -3.77432900     -0.39283300     -1.03542800
C          -3.07873800     -0.54293400      1.38135700
C          -1.76833300     -1.75985500     -0.38011600
H          -0.80660800      0.72289200      0.41612200
H          -2.24388400      1.68090500     -0.02214200
H          -1.31231100      0.83886100     -1.28774900
H          -4.37998600      0.50840500     -0.83802600
H          -4.43785300     -1.26890100     -0.93487500
H          -3.43496900     -0.34626100     -2.08485700
H          -3.65722000      0.36023800      1.64083100
H          -3.73517400     -1.41487800      1.54328700
H          -2.23634800     -0.61877700      2.09037400
H          -0.89295500     -1.84893500      0.28450100
H          -2.38849900     -2.66242000     -0.24039400
H          -1.40088100     -1.76243400     -1.42064200
