14
b3lypvdz=-158.333787804056 
C          -4.13919700      1.25911100     -0.92246200
C          -2.59246700     -0.59174300      0.00878600
C          -3.69433200     -0.20929300     -0.99441500
C          -3.06245200     -0.65304700      1.46951700
H          -3.29130700      1.93907100     -1.11592400
H          -4.91644400      1.47623000     -1.67392700
H          -4.55866300      1.51662200      0.06526300
H          -1.75413100      0.12444700     -0.08297000
H          -2.18175800     -1.57828800     -0.27344300
H          -4.56959600     -0.86725500     -0.83717600
H          -3.32996900     -0.41957500     -2.01714900
H          -3.42781600      0.32454300      1.82843500
H          -3.88434900     -1.38021600      1.59077800
H          -2.24162100     -0.96510700      2.13688700
