14
b3lypvdz=-158.3334313067 
C          -0.47489900      0.86115600      0.46689600
C           0.31165800      2.15235900      0.20370400
C          -1.74365300      0.69446800     -0.38499300
C          -2.74120800      1.85589900     -0.28934900
H           0.18623600     -0.00546300      0.28384100
H          -0.75157500      0.81622500      1.53786300
H           1.25282400      2.16171500      0.77708000
H           0.57028300      2.25554000     -0.86525900
H          -0.26073800      3.04669700      0.50053700
H          -2.24927400     -0.23895000     -0.07803200
H          -1.45148100      0.55329300     -1.44321100
H          -3.66441000      1.62519600     -0.84608800
H          -3.02449100      2.05854600      0.75869800
H          -2.32757200      2.78632000     -0.71178800
