18
b3lypvdz=-235.70061773148 
C          -1.75375800      0.75616100     -0.26198400
C          -2.60315400     -0.51329500     -0.03198800
C          -3.78850000     -0.27326000     -0.99108200
C          -3.04618200     -0.68477100      1.42884800
C          -2.77983700      1.90795900     -0.37853300
C          -4.09244600      1.24608700     -0.90038500
H          -0.99926300      0.92792400      0.52330500
H          -1.20593000      0.64918700     -1.21520500
H          -2.04166200     -1.41742700     -0.32543300
H          -4.66308600     -0.90219200     -0.75738300
H          -3.47100300     -0.53010400     -2.01712800
H          -3.61176600      0.18822600      1.79819700
H          -3.70034800     -1.56634200      1.54149600
H          -2.17842800     -0.82525300      2.09476300
H          -2.94968900      2.37213700      0.60676800
H          -2.41909200      2.71048700     -1.04137800
H          -4.40111300      1.64979000     -1.87737800
H          -4.92614400      1.44448800     -0.20779800
