15
b3lypvdz=-308.490991337122 
C           1.86493100     -0.38320700      0.78549400
O           5.06083600     -0.04235300     -1.89951700
C           2.77708300     -1.57918900      0.48026800
C           3.38268300     -1.47368900     -0.92680800
C           4.09941600     -0.14403600     -1.15543700
C           3.53317000      1.03066000     -0.44835200
C           2.50773500      0.92785000      0.41843500
H           0.90760800     -0.47192000      0.23368100
H           1.58271900     -0.37051400      1.85276900
H           3.59533600     -1.60445800      1.22241100
H           2.21713900     -2.52209900      0.59230400
H           4.09355200     -2.28382100     -1.14822200
H           2.57652400     -1.53932300     -1.68422500
H           3.99542800      1.99201400     -0.69187300
H           2.09984100      1.83268400      0.88447100
