20
b3lypvdz=-236.903877097933 
C          -0.41867500      0.79277700      0.46523600
C           0.50035900     -0.40357200      0.17579000
C          -1.74939100      0.72366800     -0.30863800
C          -2.64056700     -0.50196700     -0.04127000
C          -3.12365900     -0.62863900      1.40972500
C           0.29708900      2.11914500      0.16251000
H          -0.64879100      0.78472200      1.54724700
H           1.45517100     -0.30569400      0.71821400
H           0.04399800     -1.35662900      0.48963000
H           0.73179800     -0.47908400     -0.90204000
H          -2.33529500      1.63394100     -0.07621400
H          -1.52589500      0.77320700     -1.39211300
H          -3.52138200     -0.43643500     -0.70474100
H          -2.11067400     -1.42513300     -0.33801700
H          -3.63242600      0.29369900      1.74183500
H          -3.83925500     -1.46080400      1.51906400
H          -2.29022500     -0.81922200      2.10577900
H           1.22275400      2.21760800      0.75301300
H           0.57046200      2.18820600     -0.90589800
H          -0.34749800      2.98280300      0.40028700
