21
b3lypvdz=-274.963062116355 
C          -0.45396900      0.79507800      0.30942100
C          -1.90847900      0.80920700     -0.17391800
C          -2.59824500     -0.54840300     -0.02396200
C           0.29405100      2.10712000      0.04048500
C           1.70506600      2.20225900      0.66722900
C           3.72920900      0.96432200     -0.21895600
C           2.57874400      0.99379400      0.45973800
H           0.07838200     -0.03615100     -0.18728000
H          -0.43453300      0.56091800      1.39227800
H          -2.47170900      1.58075100      0.38251900
H          -1.93990000      1.12278700     -1.23477000
H          -3.63562600     -0.52207300     -0.39547800
H          -2.62571400     -0.87233000      1.03114000
H          -2.06295700     -1.32838600     -0.59233400
H           0.36949700      2.25293500     -1.05271600
H          -0.30469000      2.95459000      0.42308700
H           2.21547200      3.09556300      0.26825800
H           1.59029500      2.36336100      1.75669900
H           4.31462800      0.04539200     -0.31473400
H           4.13539100      1.86119800     -0.69859400
H           2.22438700      0.06526800      0.92548700
