15
b3lypvdz=-233.518652649733 
C          -0.41470100      0.76102200      0.52359800
C          -1.65618900      0.82771100     -0.36571300
C          -2.62049000     -0.34108200     -0.14691900
C          -3.85380700     -0.28941800     -1.03884000
O          -4.66043000     -1.41683500     -0.73257100
H           0.14083800     -0.18001800      0.36618600
H           0.27987900      1.59133600      0.31643900
H          -0.68754300      0.80792800      1.59213000
H          -2.18805500      1.78046500     -0.18292900
H          -1.34476900      0.85602000     -1.42705900
H          -2.96119000     -0.36643600      0.90426600
H          -2.10156700     -1.29942100     -0.32935700
H          -4.40000200      0.66248300     -0.86496200
H          -3.53959800     -0.28807500     -2.10458500
H          -5.45047500     -1.38298100     -1.29008400
