23
b3lypvdz=-276.187210484711 
C          -0.43052300      0.75088500      0.43142900
C           0.47615200     -0.46407900      0.18376900
C          -1.76411100      0.72976700     -0.33706700
C           1.84951300     -0.37327300      0.86919400
C          -2.67844000     -0.48090100     -0.07960600
C           1.78767700     -0.37941200      2.40194700
C          -3.13517900     -0.63658800      1.37693200
H           0.11873600      1.66653200      0.14057600
H          -0.63346600      0.85043500      1.51240700
H          -0.02860700     -1.38475600      0.53065000
H           0.62667100     -0.58551900     -0.90539900
H          -2.32489300      1.65143500     -0.08972100
H          -1.54870800      0.78475200     -1.42116300
H           2.46957900     -1.22417200      0.53330000
H           2.37174500      0.53924900      0.52396800
H          -3.56948000     -0.38085500     -0.72511600
H          -2.17369600     -1.40769200     -0.40832000
H           1.23856400     -1.26215200      2.77545200
H           2.79986000     -0.40660900      2.83756200
H           1.28353600      0.51638600      2.80019800
H          -3.62743700      0.28229700      1.74151600
H          -3.85706400     -1.46440100      1.48002500
H          -2.29002900     -0.85332900      2.05096900
