14
b3lypvdz=-158.336089888896 
C          -2.57075600     -0.51341900     -0.01007900
C          -3.71370700     -0.31669800     -1.01552200
C          -1.74551500     -1.76285000     -0.35136900
C          -3.10178000     -0.58886300      1.42826000
H          -1.90179700      0.36623500     -0.08268900
H          -4.29813700      0.59237800     -0.79141000
H          -4.41068100     -1.17391100     -0.99418900
H          -3.32641300     -0.22225100     -2.04446500
H          -0.89338500     -1.88355900      0.33808400
H          -2.36678800     -2.67383000     -0.27952100
H          -1.34091200     -1.71057200     -1.37663100
H          -3.66069000      0.32293000      1.70008800
H          -3.78619800     -1.44710000      1.55180900
H          -2.27794100     -0.70919100      2.15233400
