14
b3lypvdz=-270.393991327765 
C           1.79069400     -0.36457500      0.80339900
O           5.17434900     -0.00615500     -1.83507900
C           1.74098500      2.17359500      0.80156200
C           4.23507700     -0.14161900     -1.07184800
C           3.48759200      0.99036300     -0.50767500
C           2.41630800      0.91798700      0.31660600
H           0.77508700     -0.47056600      0.38243300
H           1.67431700     -0.34089800      1.90079100
H           2.36161600     -1.26323400      0.54154500
H           0.67364000      2.17323500      0.51407500
H           2.20826700      3.07860800      0.38937500
H           1.77045900      2.23334500      1.90468100
H           3.89843500     -1.16546000     -0.77149200
H           3.86777400      1.96727400     -0.82547400
