20
b3lypvdz=-236.903773085829 
C          -0.57099600      0.71442100      0.38090500
C           0.46894100     -0.39889700      0.17175900
C          -1.89070900      0.52634700     -0.37554800
C          -0.04019400     -1.82251900      0.42738600
C          -2.80547600      1.75586500     -0.31180300
C          -4.21045500      1.50760900     -0.86642300
H          -0.11649000      1.67691400      0.07892600
H          -0.79755300      0.81441400      1.46076400
H           1.33302900     -0.19631100      0.82978300
H           0.85968800     -0.34051200     -0.86153700
H          -2.43144800     -0.34464300      0.03781200
H          -1.67923400      0.27759400     -1.43451300
H          -0.81586700     -2.11558200     -0.29880000
H           0.77940000     -2.55551500      0.34386300
H          -0.48248900     -1.92358000      1.43507200
H          -2.88305700      2.09470600      0.73876300
H          -2.32854500      2.58958000     -0.86027300
H          -4.72571700      0.71412500     -0.29833500
H          -4.18021400      1.18282500     -1.92166800
H          -4.83411600      2.41515800     -0.81063400
