18
b3lypvdz=-235.678303690667 
C          -0.48442700      0.84962700      0.30440800
C           0.41093300     -0.35871400     -0.00254800
C          -1.92652100      0.66620700     -0.17538600
C           1.81185100     -0.32157600      0.64750500
C           3.78515600      0.99599200     -0.21982300
C           2.60216100      0.93517400      0.39803300
H          -0.05476600      1.75273500     -0.16357000
H          -0.48243100      1.04341000      1.39394400
H          -0.09712800     -1.27700100      0.34557600
H           0.51843600     -0.46175300     -1.09801800
H          -2.39071400     -0.22056100      0.28881000
H          -2.55286200      1.53713200      0.07964400
H          -1.97671000      0.52926100     -1.26983100
H           1.68735000     -0.44641400      1.74096500
H           2.39467800     -1.19064000      0.29665800
H           4.27339000      0.09545600     -0.60689800
H           4.31590500      1.94211400     -0.35688700
H           2.16059900      1.86585000      0.77621900
