12
b3lypvdz=-157.109219035993 
C           3.53287000      1.00915900     -0.43760700
C           1.83897900     -0.35786500      0.84109400
C           2.46509800      0.92427400      0.36241600
C           1.72416600     -0.42711800      2.37174100
H           4.03520300      0.11330500     -0.81861400
H           3.93744100      1.97678900     -0.74868700
H           0.82539800     -0.44843600      0.40391700
H           2.42037400     -1.21704000      0.46493000
H           1.99550000      1.85128500      0.72139200
H           1.25598200     -1.37287800      2.69234100
H           2.71692800     -0.35889300      2.84696100
H           1.10696100      0.39751700      2.76711600
