21
b3lypvdz=-274.960519369548 
C          -0.45473000      0.78652600      0.46028900
C           0.42146400     -0.41824700      0.08091900
C           1.83670700     -0.35176800      0.73746400
C          -0.31506900     -1.72660100      0.41108200
C           2.68350300     -1.59694500      0.43897200
C           3.60207300      1.07986900     -0.42782300
C           2.54121000      0.93978500      0.37392200
H          -1.45703900      0.69289200      0.01161800
H          -0.02637300      1.73636400      0.10651700
H          -0.58567700      0.86149200      1.55502100
H           0.57906100     -0.38697400     -1.01437000
H           1.67103900     -0.31875600      1.83427900
H          -1.32947200     -1.71300200     -0.02023400
H           0.20004100     -2.60815200      0.00105500
H          -0.41712000     -1.87012400      1.50180700
H           2.77478100     -1.77861400     -0.64546100
H           3.69829200     -1.48728400      0.85130000
H           2.24101100     -2.49645600      0.89063300
H           4.09802300      0.22929900     -0.90270900
H           4.02000100      2.06835600     -0.63858400
H           2.11137500      1.84674000      0.81560400
