18
b3lypvdz=-235.682227941986 
C           1.91998900     -0.37662900      0.88888400
C           1.87091400     -0.41677000      2.42808200
C           1.61937400      2.16756000      0.66990700
C           2.63380500     -1.61666100      0.34213100
C           3.63554200      1.07325400     -0.26670200
C           2.47154300      0.95236900      0.38703000
H           0.87012100     -0.41849200      0.53167500
H           1.44803500     -1.37390400      2.77565500
H           2.88568300     -0.32088100      2.85202200
H           1.25221700      0.38820000      2.85134500
H           0.57093500      2.00463300      0.36126400
H           1.99910200      3.05165100      0.13768000
H           1.59449500      2.40665900      1.74812900
H           2.62398500     -1.64240600     -0.75887600
H           3.68558000     -1.65680800      0.67433100
H           2.14018600     -2.53065200      0.70984000
H           4.28152200      0.22188300     -0.48622800
H           3.98567200      2.05219200     -0.60636900
