19
b3lypvdz=-310.891342294335 
C          -0.52683100      0.86610800      0.56891700
C          -1.66354600      0.68924900     -0.43183200
C          -2.52590400     -0.56171200     -0.20607200
C          -3.78330600     -0.29350800     -1.02970900
C          -2.69822800      1.84687800     -0.41358900
C          -4.05491600      1.22012000     -0.82825400
O          -4.83693900     -1.13990900     -0.59253500
H           0.18147800      0.02074200      0.53791300
H           0.04987500      1.78484600      0.36804200
H          -0.92605500      0.93574100      1.59621800
H          -1.23113500      0.62411400     -1.44830200
H          -2.81980100     -0.64197000      0.85728800
H          -2.02459700     -1.50040300     -0.48855000
H          -3.55199600     -0.48973700     -2.09820600
H          -2.76395300      2.25534500      0.60945000
H          -2.39041700      2.68261000     -1.06164500
H          -4.47977500      1.68493400     -1.73205900
H          -4.80353400      1.32509200     -0.02501000
H          -5.61771900     -0.94084200     -1.13036500
