23
b3lypvdz=-276.187052791701 
C          -0.38225700      0.81525000      0.44904300
C           0.54227500     -0.38584600      0.16614500
C           1.90025500     -0.40366400      0.89570800
C           1.72242400     -0.41712000      2.42230000
C           0.23670800      2.19376800      0.18017300
C           2.76576700     -1.59850600      0.44190500
C           3.31269200     -1.48668900     -0.98905100
H          -1.28422400      0.70056700     -0.17827500
H          -0.74066900      0.77834400      1.49371000
H          -0.00424700     -1.31261500      0.42742900
H           0.71795800     -0.43519300     -0.92400100
H           2.45587400      0.51528500      0.62531100
H           1.13918800     -1.29735500      2.74701400
H           2.69898900     -0.45529300      2.93292800
H           1.19700800      0.48042100      2.78654200
H           1.05058000      2.42517700      0.88616000
H           0.65132100      2.25843000     -0.84167000
H          -0.52259800      2.98722200      0.28671000
H           3.62249800     -1.69762300      1.13250200
H           2.17983000     -2.53167500      0.54743300
H           3.90216000     -0.56167800     -1.11703800
H           3.97619400     -2.33551800     -1.22532500
H           2.50857500     -1.47968800     -1.74335300
