23
b3lypvdz=-276.186785544486 
C           0.48295100     -0.43726000      0.14431900
C           1.85113000     -0.43269700      0.84705500
C          -2.68608900     -0.59781500     -0.03478700
C          -3.12896100     -0.53936200      1.43050000
C          -0.34688700     -1.71239100      0.35813200
C           2.80034100     -1.56468500      0.44050100
C          -1.70682500     -1.73730800     -0.36189300
H          -0.08755600      0.43531100      0.50885800
H           0.62951000     -0.27251100     -0.94127400
H           1.69518000     -0.46451200      1.94193400
H           2.34382000      0.53499500      0.64059100
H          -2.23725000      0.37063600     -0.32322600
H          -3.57647700     -0.71679900     -0.67733200
H          -3.87629900      0.25424000      1.59547700
H          -3.58554900     -1.49401700      1.74730500
H          -2.28388600     -0.33820200      2.10939600
H           0.22976400     -2.58383200      0.00169400
H          -0.49205700     -1.87375000      1.44289100
H           2.97557300     -1.57217900     -0.64979300
H           3.77877400     -1.45546600      0.93561500
H           2.40306400     -2.55509400      0.71782200
H          -2.20318600     -2.69797400     -0.12394700
H          -1.53078500     -1.74932600     -1.45353900
