20
b3lypvdz=-236.903897162603 
C          -0.38494300      0.77271900      0.44275500
C           0.51328700     -0.44936500      0.21079500
C          -1.71200700      0.75709600     -0.33679900
C          -2.65132300     -0.44291700     -0.09795500
C          -3.87805200     -0.34275800     -1.02131700
C          -3.08884100     -0.55679300      1.37113500
H           0.17042100      1.68229900      0.14876100
H          -0.58419100      0.87936500      1.52441500
H           1.48259100     -0.32596400      0.72122400
H           0.05500100     -1.37446200      0.59938200
H           0.71626600     -0.60132200     -0.86403200
H          -2.26959700      1.68448200     -0.10097600
H          -1.47851700      0.80767000     -1.41780100
H          -2.11069400     -1.36876900     -0.36962100
H          -4.46973700      0.56272500     -0.79584100
H          -4.54409100     -1.21453200     -0.90282100
H          -3.57700700     -0.29203800     -2.08218100
H          -3.58456600      0.37178900      1.70704800
H          -3.80519400     -1.38463300      1.50914400
H          -2.23680600     -0.74499300      2.04458500
