21
b3lypvdz=-274.963461368619 
C          -0.48885400      0.82088900      0.22642500
C           0.42281500     -0.38780500     -0.02403100
C          -1.90973900      0.62381000     -0.31583100
C           1.79972400     -0.34038600      0.67529800
C          -2.78269200      1.87551000     -0.20842200
C           3.73873900      1.04210400     -0.17305800
C           2.57273100      0.93535800      0.47097700
H          -0.04632900      1.71890800     -0.24146000
H          -0.53982000      1.03890100      1.31127900
H          -0.09548200     -1.30525100      0.31082700
H           0.57496500     -0.49933200     -1.11328300
H          -2.39015900     -0.21299100      0.22377200
H          -1.85531500      0.30577200     -1.37396000
H           1.64319100     -0.48781200      1.76149800
H           2.40676600     -1.19326600      0.32544400
H          -3.79238000      1.69850700     -0.61387700
H          -2.89463100      2.20377700      0.83945300
H          -2.34184100      2.71681900     -0.77067600
H           4.22926200      0.16825900     -0.61458200
H           4.25178000      2.00216300     -0.27807300
H           2.12857100      1.84116800      0.90307900
