23
b3lypvdz=-276.187895568052 
C          -0.40741600      0.77983100      0.44526900
C           0.46256000     -0.45718600      0.18159900
C          -1.77254700      0.80680900     -0.26448200
C           1.89628900     -0.30257500      0.70416100
C          -2.66757100     -0.43450900     -0.10514300
C          -3.08442200     -0.75711800      1.33423300
C           2.73834400     -1.57441000      0.57965400
H           0.15306300      1.68019100      0.12960100
H          -0.54633600      0.88572300      1.53764500
H           0.00110200     -1.34370400      0.65572300
H           0.49226700     -0.67843400     -0.90364000
H          -2.32948000      1.69419500      0.09280900
H          -1.60308900      0.97180500     -1.34516600
H           1.86594700      0.01127400      1.76503600
H           2.38787200      0.52629500      0.16149500
H          -3.57322900     -0.27878400     -0.71839500
H          -2.15938500     -1.31193100     -0.54666800
H          -3.58727600      0.10383600      1.80982800
H          -3.78647400     -1.60735100      1.36623500
H          -2.21961700     -1.02340400      1.96464500
H           2.82861400     -1.90035700     -0.47129000
H           3.75701900     -1.42462100      0.97383100
H           2.28416500     -2.40757600      1.14401700
