20
b3lypvdz=-236.902819702632 
C          -0.51916400      0.79754700      0.42469400
C           0.39052900     -0.42227100      0.16538000
C          -1.81668200      0.73693500     -0.40489100
C           0.27345400      2.09328100      0.18392400
C          -0.25499700     -1.79580800      0.39860700
C          -2.73643800      1.95882100     -0.27417000
H          -0.80968100      0.77675500      1.49500400
H           1.27916300     -0.33276200      0.81605100
H           0.76871700     -0.37124100     -0.87411900
H          -2.38897400     -0.15716200     -0.10329200
H          -1.55398300      0.59166600     -1.47099300
H           1.21965700      2.08361400      0.74971200
H           0.52431600      2.21385000     -0.88541700
H          -0.28699200      2.98594100      0.50399100
H          -1.05076000     -2.00966000     -0.33255900
H           0.49668800     -2.59787300      0.30611200
H          -0.69890200     -1.86482600      1.40775400
H          -3.68993100      1.78289500     -0.79882000
H          -2.97151600      2.17485400      0.78283700
H          -2.28560500      2.86384300     -0.71190500
