14
b3lypvdz=-158.333904340848 
C          -1.83520500      0.73484100     -0.33451200
C          -2.74686300      1.96808700     -0.35493800
C          -2.55526400     -0.58344700     -0.00518500
C          -3.10035400     -0.66516200      1.42756900
H          -1.01746500      0.89490200      0.39327700
H          -1.34971900      0.63554100     -1.32244700
H          -3.57985800      1.83420700     -1.06668800
H          -3.18576700      2.17461000      0.63569900
H          -2.18578600      2.86693100     -0.66162300
H          -3.38218200     -0.73553200     -0.72398200
H          -1.85016700     -1.41900400     -0.16868500
H          -3.87695200      0.09368000      1.61810600
H          -3.55335300     -1.65174400      1.62452300
H          -2.29376500     -0.51180900      2.16608600
