17
b3lypvdz=-197.619921871534 
C          -1.85486200      0.72680100     -0.34416500
C          -2.58802100     -0.59209600     -0.03374600
C          -3.10688700     -0.64415700      1.41167100
C          -2.74786300      1.97490300     -0.33360200
C          -1.68602700     -1.80200600     -0.32318000
H          -1.02650800      0.85812400      0.37777800
H          -1.38182900      0.64291700     -1.33984300
H          -3.46129800     -0.65517200     -0.71225900
H          -3.82981000      0.16002900      1.62331200
H          -3.61534100     -1.60228500      1.61516000
H          -2.27373200     -0.54696800      2.13103200
H          -3.58947600      1.86636800     -1.03940100
H          -3.17438800      2.17238000      0.66404200
H          -2.17583200      2.86972900     -0.63122300
H          -0.79510500     -1.80015100      0.32899900
H          -2.22675900     -2.74862800     -0.15036700
H          -1.33386300     -1.80199000     -1.36890700
