17
b3lypvdz=-197.618554779715 
C          -0.36961200      0.79205600      0.55250800
C           0.42131300     -0.47043700      0.18553200
C           0.32706300      2.12325200      0.22299800
C          -0.40574300     -1.75403500      0.30525000
C           1.74256500      2.28233600      0.79078400
H          -1.33838600      0.77119500      0.01996700
H          -0.61739900      0.75877600      1.63112000
H           1.31317100     -0.55096100      0.83222600
H           0.80657000     -0.37809200     -0.84796600
H           0.36397600      2.24551700     -0.87638900
H          -0.30690300      2.94855100      0.59459600
H          -1.27069500     -1.74145000     -0.38029900
H           0.19686800     -2.64567600      0.06498900
H          -0.80465400     -1.88387800      1.32665000
H           2.44087200      1.54167900      0.36751400
H           2.15066700      3.28034500      0.55918800
H           1.76042700      2.16092000      1.88883200
