17
b3lypvdz=-197.62074680843 
C          -0.43228700      0.85732700      0.46805100
C          -1.71226600      0.83276500     -0.37656800
C          -2.58245200     -0.41012100     -0.14159000
C          -3.85104300     -0.43725600     -1.00200000
C           0.39429400      2.13570600      0.27817400
H           0.18938200     -0.02159200      0.21451500
H          -0.70203100      0.74971400      1.53559700
H          -2.30992800      1.73865900     -0.15700700
H          -1.43974100      0.89351600     -1.44801500
H          -2.86599000     -0.45695600      0.92668100
H          -1.98277600     -1.31726100     -0.34382600
H          -4.48106900      0.44943600     -0.81198000
H          -4.46231100     -1.33058200     -0.79003700
H          -3.60043400     -0.44730900     -2.07729800
H           1.30201000      2.12509400      0.90310800
H           0.71323700      2.25320400     -0.77209400
H          -0.19119400      3.03065400      0.55229000
