14
b3lypvdz=-158.335285460829 
C          -1.84849800      0.73022900     -0.40591700
C          -2.74595300      1.96155600     -0.26201500
C          -2.57386000     -0.59045400     -0.12827800
C          -1.67931600     -1.82313500     -0.27774900
H          -0.98491100      0.82152900      0.27950500
H          -1.41919600      0.70147600     -1.42543300
H          -3.60358500      1.91900200     -0.95553400
H          -3.16000300      2.04040100      0.75864700
H          -2.19171800      2.89161600     -0.47074800
H          -3.44257400     -0.67602800     -0.80759600
H          -2.99483200     -0.56439200      0.89483800
H          -0.81292500     -1.77745500      0.40431100
H          -2.23143300     -2.75100800     -0.05372700
H          -1.28029700     -1.90973600     -1.30370400
