18
b3lypvdz=-235.677693135419 
C          -0.48934100      0.76231100      0.48540200
C           0.43373900     -0.41640600      0.16936000
C           1.87300100     -0.32273700      0.73923500
C           2.65882200     -1.58936000      0.38956300
C           3.67877500      1.09554300     -0.37793000
C           2.56388400      0.96500300      0.34896700
H          -1.51061800      0.56524500      0.12127600
H          -0.14405800      1.69355900      0.00837100
H          -0.55279400      0.95028200      1.57158200
H          -0.01746300     -1.34300900      0.56729800
H           0.49917600     -0.55155500     -0.92656300
H           1.76743100     -0.28675800      1.84392800
H           2.76850200     -1.70604300     -0.70236400
H           3.66680900     -1.57822400      0.83175800
H           2.13295000     -2.48145200      0.76618600
H           4.22368400      0.23628300     -0.77680100
H           4.09558500      2.08217300     -0.59929400
H           2.08501600      1.87754500      0.72492500
