21
b3lypvdz=-312.089161189551 
C          -0.37284800      0.84250300      0.44229900
C          -1.65494800      0.80203200     -0.39722100
C          -2.55691900     -0.42393900     -0.16283200
C          -3.80655700     -0.33694800     -1.04076700
C           0.37932400      2.17108600      0.31832100
C          -1.84895800     -1.76927000     -0.37197400
O          -4.71553300     -1.36042800     -0.64150700
H           0.29735800      0.01747400      0.14389400
H          -0.63009300      0.66211300      1.50314500
H          -2.24556900      1.71239400     -0.17962500
H          -1.38246500      0.86568800     -1.47003700
H          -2.91571000     -0.38674100      0.88447000
H          -4.26801000      0.66674900     -0.93430000
H          -3.50908800     -0.45684800     -2.10547500
H           1.29708000      2.17487300      0.92794700
H           0.67323000      2.37135400     -0.72668700
H          -0.24697100      3.01599100      0.65380300
H          -1.04662300     -1.93381200      0.36328300
H          -2.57671800     -2.58865100     -0.27325900
H          -1.40014800     -1.82792500     -1.38053000
H          -5.47933300     -1.32589700     -1.23435000
