17
b3lypvdz=-197.619229584719 
C          -0.41562600      0.84353400      0.36555600
C           0.47618400     -0.38600900      0.14484600
C          -1.77890800      0.73639100     -0.32287800
C           1.82674300     -0.34796700      0.87521800
C           1.72317500     -0.49309100      2.39673200
H           0.11805800      1.74219700      0.00047400
H          -0.56972100      1.00477400      1.44819800
H          -0.07662900     -1.29239900      0.46276200
H           0.65193200     -0.50748600     -0.94031300
H          -2.33050800     -0.15461400      0.02624300
H          -2.41287000      1.61467100     -0.11639300
H          -1.67468900      0.64821200     -1.41876900
H           2.46743900     -1.15708000      0.48124800
H           2.35341800      0.59328000      0.62462000
H           1.18348000     -1.41795100      2.67045400
H           2.71848200     -0.54134200      2.86728400
H           1.17964200      0.34418300      2.86481700
