21
b3lypvdz=-274.962862898056 
C          -0.45404100      0.84259700      0.29175100
C           0.46365300     -0.35126000     -0.00060700
C          -1.89598000      0.61999400     -0.17190800
C           1.85824200     -0.31072800      0.67497200
C           2.64232700     -1.58980100      0.36586600
C           3.81853100      1.07115300     -0.19933700
C           2.61430400      0.96376500      0.37190200
H          -0.04988000      1.75001600     -0.18927800
H          -0.44982900      1.04878300      1.37885000
H          -0.03780100     -1.27495900      0.34341100
H           0.59331600     -0.46135000     -1.09395900
H          -2.33105100     -0.27712900      0.30056000
H          -2.54115500      1.47526600      0.08873400
H          -1.95582100      0.47853400     -1.26513400
H           1.66377600     -0.29335600      1.76772500
H           2.87235100     -1.67433200     -0.71021400
H           3.59497500     -1.62325800      0.91625800
H           2.05439600     -2.47751300      0.64998600
H           4.39400500      0.19958200     -0.52072900
H           4.28067000      2.04848200     -0.36346400
H           2.10621100      1.88521600      0.68041400
