23
b3lypvdz=-276.187145298816 
C           0.50024900     -0.49044600      0.13815800
C           1.84989800     -0.41706800      0.88920300
C           1.65346100     -0.37723100      2.41253200
C          -0.28291100     -1.80888800      0.23842600
C           2.85821700     -1.51890100      0.50788600
C          -1.70109800     -1.69118200     -0.32984400
C           3.26960800     -1.55823700     -0.96664400
H          -0.13829200      0.32502100      0.52786500
H           0.65813900     -0.25447700     -0.93038800
H           2.30560200      0.54831600      0.58960000
H           1.29442800     -1.34474400      2.80646200
H           2.59922800     -0.14461100      2.92970400
H           0.91527200      0.38795600      2.70501600
H           0.26241300     -2.60884100     -0.29410200
H          -0.34785900     -2.13577900      1.29216500
H           3.76140400     -1.37912500      1.12932000
H           2.44360900     -2.50249300      0.80183000
H          -2.28598000     -0.93512600      0.22145000
H          -2.24856800     -2.64620600     -0.26177600
H          -1.69000100     -1.38372100     -1.39074600
H           3.68687500     -0.58900500     -1.29267600
H           4.04221400     -2.32448700     -1.14509100
H           2.42049200     -1.79222400     -1.62985000
