18
b3lypvdz=-272.804168826612 
C          -1.66647900      0.90146600     -0.41063700
C          -2.48252900     -0.37265600     -0.16378600
C          -3.78278200     -0.32506400     -0.97073700
C          -0.48483700     -1.88919600      0.45344100
C          -1.70185700     -1.67065400     -0.44394500
O          -4.58137700     -1.44883400     -0.62347800
H          -0.76782300      0.94054800      0.22289300
H          -2.26401800      1.80265300     -0.19100000
H          -1.33112900      0.97048200     -1.46144400
H          -2.78379600     -0.38718800      0.90267300
H          -4.31523900      0.62294700     -0.74928100
H          -3.53722600     -0.31879200     -2.05501000
H           0.29902900     -1.13075500      0.29084400
H          -0.02626700     -2.87322500      0.26119200
H          -0.76536200     -1.85487000      1.52115200
H          -2.40608600     -2.50987600     -0.32512700
H          -1.38593500     -1.67927200     -1.50630400
H          -5.37448800     -1.43791500     -1.17684700
