21
b3lypvdz=-274.965190372458 
C           1.92965400     -0.39231900      0.82979600
C           1.74288900     -0.40260000      2.35973900
C           0.21119300      2.14540100      0.27259000
C           1.69610700      2.19196300      0.66671700
C           2.72217400     -1.62608600      0.38364400
C           3.65610400      1.04135000     -0.32013600
C           2.49761400      0.93886600      0.34803000
H           0.92063000     -0.47872100      0.38163500
H           1.31565900     -1.36398600      2.68950400
H           2.71004900     -0.26795500      2.87361600
H           1.06544500      0.39271600      2.70532100
H          -0.34173000      1.36585800      0.81999000
H           0.08731000      1.94851000     -0.80576300
H          -0.27929800      3.10598600      0.50021400
H           2.17780200      3.04412800      0.16102800
H           1.76716900      2.40210700      1.75087400
H           2.82506500     -1.67462500     -0.71192200
H           3.73511600     -1.63684200      0.82007900
H           2.21150400     -2.54389100      0.71721600
H           4.28050000      0.17911600     -0.55864400
H           4.02514500      2.01602400     -0.65222800
