23
b3lypvdz=-276.185168723832 
C          -0.45608600      0.80497500      0.44383600
C           0.43339400     -0.43197000      0.13604300
C          -1.76133300      0.79227600     -0.37276000
C           1.79941800     -0.42315600      0.86295900
C           1.74187100     -0.40404500      2.39676700
C           0.28503000      2.13393500      0.20882400
C          -0.30537300     -1.76117600      0.38881300
H          -0.74053000      0.76480000      1.51347300
H           0.66378000     -0.39248200     -0.94774100
H          -2.40641200     -0.06294400     -0.11734200
H          -2.34759100      1.70730900     -0.18300800
H          -1.54982400      0.74807400     -1.45670500
H           2.35885600     -1.32037900      0.53978900
H           2.40073900      0.43363800      0.51387500
H           1.18771800     -1.26719800      2.80056800
H           2.75844700     -0.43951100      2.82161800
H           1.25886700      0.50972600      2.78099200
H           1.14165500      2.26231900      0.88816500
H           0.66353100      2.20057400     -0.82712500
H          -0.39074700      2.99032100      0.37396900
H          -1.14153200     -1.90487700     -0.31226900
H           0.37798800     -2.61804500      0.25825200
H          -0.71736800     -1.81376200      1.41150700
