21
b3lypvdz=-274.961981813728 
C          -0.51880600      0.82844200      0.39705200
C          -1.85001100      0.71464800     -0.36469100
C           0.30343600      2.08451400      0.07105200
C          -2.81465400      1.89409400     -0.19256900
C           1.70460000      2.13852000      0.72246300
C           3.72941200      1.04489100     -0.31931000
C           2.60245800      0.97410300      0.39561100
H           0.08116500     -0.06786400      0.16033500
H          -0.71458900      0.78792900      1.48688100
H          -2.35594500     -0.21159200     -0.03684700
H          -1.63249700      0.57739800     -1.44106000
H           0.41834000      2.17347600     -1.02575600
H          -0.25276200      2.98042200      0.39992800
H          -3.76832300      1.69959300     -0.71041300
H          -3.04513700      2.07972700      0.87152900
H          -2.40081600      2.82748100     -0.60941800
H           2.20465600      3.07130800      0.40826300
H           1.58129900      2.19987600      1.82158000
H           4.33744300      0.15827900     -0.52155000
H           4.09000300      1.99619900     -0.72615700
H           2.29112700     -0.00364300      0.78557400
