17
b3lypvdz=-197.61994031337 
C          -1.69151500      0.86943200     -0.36594000
C          -2.49921200     -0.41384200     -0.12757300
C          -3.77813500     -0.41073800     -0.97514100
C          -0.39712700     -1.84054500      0.42843200
C          -1.68838900     -1.70152300     -0.38042600
H          -0.81953900      0.94532400      0.30208900
H          -2.31907100      1.76011900     -0.19316800
H          -1.32041300      0.92165900     -1.40576400
H          -2.80285400     -0.42180200      0.93893200
H          -4.41718100      0.45684900     -0.74065100
H          -4.37619800     -1.32256200     -0.80938200
H          -3.53223900     -0.36218400     -2.05169500
H           0.34842000     -1.07554400      0.15592600
H           0.07081100     -2.82382000      0.25475000
H          -0.58641800     -1.74835300      1.51265000
H          -2.34486400     -2.56306400     -0.15893800
H          -1.45187500     -1.77180700     -1.46039900
