17
b3lypvdz=-197.618242265113 
C          -1.81321800      0.78305300     -0.33294900
C          -2.53705700     -0.53984400     -0.03447500
C          -3.11434100     -0.53514200      1.39058200
C          -0.30302600     -1.84788900      0.38140500
C          -1.66848200     -1.78831400     -0.31773000
H          -0.99396700      0.97048100      0.38091700
H          -2.51455200      1.63178200     -0.25655400
H          -1.38275700      0.79227600     -1.34934200
H          -3.39844500     -0.60554200     -0.72669600
H          -3.82256100      0.30022400      1.52613400
H          -3.66088200     -1.46963700      1.60497400
H          -2.32344700     -0.42230700      2.15193200
H           0.36033200     -1.03025700      0.05405500
H           0.20908800     -2.79513900      0.14173900
H          -0.39582700     -1.79118500      1.47917300
H          -2.25446600     -2.68429100     -0.03957700
H          -1.50449100     -1.86126900     -1.40939100
