15
b3lypvdz=-233.523318442562 
C          -2.59648500     -0.60239500      0.00544700
C          -3.69484900     -0.23042600     -1.00141400
C          -3.04035200     -0.59928700      1.47249000
C          -4.18317100      1.21677600     -0.88994700
O          -4.76178000     -1.16141600     -0.79339200
H          -1.74725800      0.08930900     -0.14335800
H          -2.22809500     -1.60682700     -0.26385100
H          -3.27083800     -0.37080700     -2.01897400
H          -3.36195500      0.40046000      1.81116800
H          -3.88859200     -1.28500200      1.61760200
H          -2.21631800     -0.92256500      2.12907700
H          -3.36494900      1.92842500     -1.09261500
H          -4.97898100      1.41862100     -1.62799800
H          -4.59348100      1.42824600      0.11059600
H          -5.48709800     -0.91591200     -1.38583000
