21
b3lypvdz=-274.986936388847 
C          -0.49826400      0.88111200      0.50317300
C          -1.67352000      0.70501100     -0.46286500
C          -2.51248700     -0.55957700     -0.19787400
C          -3.82725100     -0.30682000     -0.94800800
C           0.31959700      2.15824800      0.28584300
C          -2.72125100      1.84764500     -0.41608200
C          -4.09195400      1.21006800     -0.78023900
H           0.17082300      0.00459600      0.42025000
H          -0.89546700      0.86615600      1.53656600
H          -1.27437600      0.63759900     -1.49396600
H          -2.70465600     -0.64642400      0.88887000
H          -2.00517500     -1.48634900     -0.51262100
H          -4.65653100     -0.93171900     -0.58043700
H          -3.69267100     -0.55156600     -2.01630100
H           1.16852300      2.21700500      0.98597800
H           0.73214400      2.20341600     -0.73698000
H          -0.29511300      3.06158500      0.43464000
H          -2.75621500      2.26691200      0.60489100
H          -2.45401800      2.68078500     -1.08431000
H          -4.52035100      1.64620100     -1.69603100
H          -4.82578600      1.39491700      0.02130400
