20
b3lypvdz=-236.902244212477 
C          -0.52000200      0.81620100      0.36527900
C           0.45052500     -0.36421800      0.24535900
C          -1.83538100      0.67263400     -0.42495500
C          -2.65612400     -0.58696400     -0.06512700
C          -3.07902500     -0.72258500      1.40410100
C          -2.66689400      1.96000000     -0.30542100
H          -0.01322600      1.73231200      0.01025700
H          -0.74762000      0.99785200      1.43277900
H           1.39985300     -0.14650200      0.76164000
H           0.03910000     -1.28530300      0.69057900
H           0.68796700     -0.58434100     -0.81028500
H          -1.55807800      0.56204000     -1.49228600
H          -3.55896200     -0.59589200     -0.70234000
H          -2.08074900     -1.48343900     -0.35749500
H          -3.68869500      0.13173600      1.74332000
H          -3.68506000     -1.63212700      1.55305900
H          -2.20789300     -0.79591700      2.07642100
H          -3.59599000      1.89372100     -0.89574000
H          -2.94896000      2.17323200      0.74020100
H          -2.09908500      2.83056000     -0.67504500
