18
b3lypvdz=-235.702789247084 
C          -1.71146900      0.77950100     -0.30230300
C          -2.51268700     -0.51808000     -0.08497800
C          -3.73381000     -0.29590700     -0.99505600
C          -2.78160400      1.89263500     -0.32956000
C          -1.74512100     -1.81218900     -0.35478300
C          -4.08686300      1.20477300     -0.84049800
H          -0.93749700      0.94833600      0.46448800
H          -1.19474900      0.72115000     -1.27870900
H          -2.86760200     -0.53153500      0.96494500
H          -4.57653200     -0.96189000     -0.74720700
H          -3.43898200     -0.51634900     -2.03845300
H          -2.93640000      2.28994300      0.68740800
H          -2.47803600      2.74545100     -0.95703000
H          -0.87648000     -1.91565900      0.31584600
H          -2.38818500     -2.69626700     -0.20599900
H          -1.37061400     -1.84088100     -1.39372900
H          -4.44102500      1.63720300     -1.78924300
H          -4.90354300      1.34196600     -0.11293700
