18
b3lypvdz=-235.679214228715 
C           0.44343800     -0.49151500      0.18868300
C           1.86292100     -0.39298700      0.79779400
C           1.74511200     -0.35976000      2.33722600
C           2.68626100     -1.61827900      0.37133300
C           3.60083600      1.09498600     -0.37055300
C           2.48959800      0.91728500      0.35000400
H          -0.17712300      0.37481600      0.47363100
H          -0.06816200     -1.39975700      0.55064500
H           0.48388200     -0.53081700     -0.91230000
H           1.27457200     -1.28440900      2.71274200
H           2.73572700     -0.25858100      2.80972700
H           1.12214400      0.48606600      2.67220700
H           2.76721800     -1.69386900     -0.72522400
H           3.70641400     -1.58367100      0.78603000
H           2.20803500     -2.54211300      0.73710700
H           4.20588600      0.26053600     -0.73419000
H           3.95223200      2.09775500     -0.62931900
H           1.93761000      1.80731400      0.68505600
