23
b3lypvdz=-276.186733154085 
C          -0.43562000      0.86886500      0.42795800
C           0.46427300     -0.35985100      0.16340100
C          -1.73634300      0.70126300     -0.38746800
C           1.82321300     -0.42583900      0.87953200
C           1.73385400     -0.45498700      2.40960000
C           0.27695500      2.19967900      0.14194200
C          -2.75453900      1.84414200     -0.28012400
H          -0.72212700      0.86643100      1.49810900
H          -0.11292600     -1.26528400      0.43160200
H           0.64277400     -0.42895200     -0.92674300
H          -2.22167800     -0.23739800     -0.06247600
H          -1.47197000      0.55348800     -1.45222200
H           2.34066300     -1.34008300      0.53607400
H           2.46712900      0.41319300      0.55877200
H           1.07991400     -1.27461000      2.75502100
H           2.72823200     -0.60878500      2.86074500
H           1.32785400      0.48629400      2.81753600
H           1.17496200      2.32230300      0.76798400
H           0.59150800      2.26931800     -0.91545700
H          -0.37799000      3.05944500      0.35803400
H          -3.69345800      1.57287100     -0.79095700
H          -3.00107400      2.07191300      0.77165400
H          -2.38520700      2.77038300     -0.74931700
