18
b3lypvdz=-235.681652657776 
C           1.87021800     -0.39354800      0.64925100
C           0.22442700      2.19127500      0.35351300
C           1.72545200      2.17771500      0.67959100
C           2.75982200     -1.62818600      0.50752100
C           3.62579500      1.03582800     -0.44414100
C           2.47782000      0.93438500      0.24077500
H           0.94278400     -0.54557400      0.06511600
H           1.52562100     -0.30814300      1.69777000
H          -0.31004500      1.36037000      0.84065400
H           0.04587900      2.11584500     -0.73223500
H          -0.24005900      3.12528000      0.70901800
H           2.20799900      3.06069000      0.23014200
H           1.84669600      2.28292000      1.77617300
H           3.05624200     -1.80462200     -0.53925900
H           3.68251600     -1.52931600      1.10170000
H           2.22899900     -2.52755000      0.85921100
H           4.21107400      0.16358800     -0.74085600
H           4.02336100      2.01314300     -0.73164100
