23
b3lypvdz=-276.186794879717 
C          -0.36026200      0.82258200      0.45463000
C           0.43966200     -0.43204800      0.06830200
C           1.77877900     -0.43868500      0.83637900
C          -0.35255200     -1.73837100      0.29348200
C           2.79628400     -1.53762700      0.49088100
C          -1.75839900     -1.77939700     -0.31547000
C           3.34968100     -1.45995100     -0.93572100
H          -1.26040300      0.94856900     -0.16586100
H           0.25727100      1.72834700      0.32976600
H          -0.68313000      0.78497900      1.51088000
H           0.65902600     -0.35612200     -1.01442600
H           1.55235300     -0.49083600      1.91849300
H           2.26878900      0.54148300      0.67586100
H           0.23269600     -2.57817500     -0.11953500
H          -0.42673600     -1.92843400      1.38201600
H           3.63618600     -1.46037000      1.20433700
H           2.34950200     -2.53364200      0.66321700
H          -2.44117800     -1.06199700      0.16727100
H          -2.20624100     -2.78056300     -0.19891400
H          -1.74311300     -1.54568700     -1.39495200
H           3.80896600     -0.47387900     -1.12795700
H           4.12475500     -2.22406100     -1.11068500
H           2.56396400     -1.61131500     -1.69449500
