20
b3lypvdz=-236.904463703171 
C          -0.44315500      0.79444600      0.41740900
C           0.52564000     -0.37928400      0.20630700
C          -1.72538000      0.60095400     -0.41588300
C           0.25700400      2.13458700      0.14242900
C          -2.76075300      1.73167500     -0.29081700
C          -4.15097500      1.34451600     -0.81139800
H          -0.74631000      0.78865300      1.48316500
H           1.40960800     -0.29220300      0.85962800
H           0.03764000     -1.34425900      0.42863600
H           0.88366500     -0.41661500     -0.83819500
H          -2.19571500     -0.34912600     -0.09997400
H          -1.45338600      0.46839700     -1.48184300
H           1.18067500      2.22157700      0.73848700
H           0.53498600      2.22942300     -0.92315500
H          -0.38329900      2.99305100      0.40311500
H          -2.84953000      2.03166100      0.77052700
H          -2.40304200      2.62315400     -0.83505100
H          -4.56224300      0.49208600     -0.24429200
H          -4.11759000      1.05107200     -1.87559600
H          -4.85994200      2.18463300     -0.71439800
