23
b3lypvdz=-276.185663949812 
C          -0.38489100      0.83323100      0.47087300
C           0.42617400     -0.43459500      0.15271100
C           1.80386900     -0.41847800      0.87673200
C           1.70990200     -0.42352200      2.41072400
C          -0.37920200     -1.73161200      0.38706000
C           2.74371200     -1.53519000      0.39643900
C          -1.72151900     -1.80779500     -0.35284000
H          -1.23819400      0.95245900     -0.21449400
H           0.24505000      1.73403300      0.36799800
H          -0.78783400      0.82301200      1.49825700
H           0.65879500     -0.39762800     -0.93072900
H           2.27309500      0.54092500      0.58280600
H           1.28620300     -1.36965000      2.79026400
H           2.71186700     -0.31443300      2.85803300
H           1.08802600      0.39751000      2.79958300
H           0.23886400     -2.58987400      0.07144100
H          -0.56376600     -1.86832900      1.46899500
H           2.81161300     -1.56625400     -0.70437600
H           3.76227200     -1.38300100      0.79109300
H           2.40678600     -2.52790500      0.74112600
H          -2.44834800     -1.07067400      0.02584800
H          -2.17803700     -2.80460500     -0.23037600
H          -1.59903900     -1.62852600     -1.43606500
