20
b3lypvdz=-236.902836735259 
C          -0.43653200      0.80830000      0.43477900
C           0.44593400     -0.42944300      0.11623100
C          -1.76580600      0.79524400     -0.34232000
C           1.79300800     -0.40611600      0.86006000
C           0.30033700      2.13538200      0.17621500
C          -0.28438300     -1.75504300      0.39571200
H          -0.68280800      0.76996800      1.51547500
H           0.66973000     -0.39854900     -0.97021100
H          -2.40727400     -0.05447400     -0.06054900
H          -2.34241200      1.71443200     -0.14301600
H          -1.58798000      0.74099100     -1.43176100
H           1.64865400     -0.32590600      1.95323200
H           2.35879500     -1.33344200      0.66682700
H           2.42982700      0.43315500      0.54031700
H           1.17285700      2.26374700      0.83503700
H           0.65328500      2.19718900     -0.86917600
H          -0.37013000      2.99319500      0.35463400
H          -1.16526600     -1.88831800     -0.25050300
H           0.38492900     -2.61337500      0.21507300
H          -0.62396300     -1.81173700      1.44624400
