17
b3lypvdz=-197.619883873727 
C          -0.41422800      0.81050700      0.42460200
C           0.45330200     -0.43222100      0.20840500
C           1.83529900     -0.38591700      0.88657400
C           1.73035000     -0.41934700      2.41692900
C           2.72503900     -1.52784500      0.38175300
H          -1.35761200      0.74042500     -0.13995100
H           0.10859100      1.72189800      0.08371700
H          -0.67621600      0.95888700      1.48521100
H          -0.08576600     -1.33035100      0.56838600
H           0.59843300     -0.58436300     -0.87687700
H           2.31585500      0.56963000      0.59265300
H           1.20281400     -1.33207300      2.75091000
H           2.72792500     -0.42537100      2.88625500
H           1.17814500      0.44223500      2.82404100
H           2.84643800     -1.49024400     -0.71390200
H           3.72915000     -1.48742400      0.83478900
H           2.28618200     -2.50962500      0.63670400
