17
b3lypvdz=-197.619583630198 
C          -0.46725100      0.82203200      0.42682000
C           0.43496500     -0.39786900      0.18409600
C          -1.76010600      0.70182100     -0.40247900
C           0.29902300      2.12745300      0.16072300
C          -2.74281400      1.87205700     -0.26335600
H          -0.75901600      0.81611900      1.49585100
H           1.33299400     -0.36900600      0.82294300
H          -0.10100100     -1.33855000      0.39990900
H           0.77254600     -0.43760300     -0.86718500
H          -2.27361800     -0.23098800     -0.10489400
H          -1.49121500      0.57633400     -1.46942200
H           1.24067900      2.15082800      0.73368200
H           0.55530000      2.23021500     -0.90959500
H          -0.28434900      3.01454600      0.45636500
H          -3.68244600      1.65819400     -0.79892000
H          -2.99727000      2.06104200      0.79445800
H          -2.33202200      2.80477700     -0.68279500
