18
b3lypvdz=-272.803967041954 
C          -0.45752800      0.84921300      0.47300400
C          -1.72230400      0.87881700     -0.39042500
C          -2.64470000     -0.32036600     -0.15566700
C          -3.87068700     -0.33980200     -1.05643300
C           0.43720100      2.07645400      0.28691700
O          -4.68038000     -1.44007300     -0.65932700
H           0.11847300     -0.06605300      0.24069300
H          -0.75230700      0.75985200      1.53557000
H          -2.27835000      1.81531700     -0.18894100
H          -1.42818500      0.92555800     -1.45746400
H          -2.99532000     -0.32962000      0.89256200
H          -2.08656700     -1.26203800     -0.30565500
H          -4.41884000      0.62239400     -0.96392500
H          -3.54961100     -0.43256100     -2.11626800
H           1.33296100      2.02677600      0.92616800
H           0.78136500      2.16926700     -0.75794800
H          -0.10311500      3.00576700      0.53956500
H          -5.45970800     -1.45860200     -1.23252700
