18
b3lypvdz=-235.678126288554 
C          -0.46621300      0.74833100      0.29522300
C          -1.92903400      0.81008000     -0.15082700
C           0.29272500      2.05561700      0.02880800
C           1.69594600      2.14496400      0.66805100
C           3.79466200      1.05326700     -0.22037600
C           2.60915800      0.98100200      0.39106000
H           0.04272900     -0.08410600     -0.22197700
H          -0.42273300      0.50681000      1.37452600
H          -2.45570900     -0.13815600      0.04790000
H          -2.47469400      1.60721800      0.38147600
H          -2.01445500      1.02042700     -1.23158700
H           0.37317700      2.20957100     -1.06315500
H          -0.30548300      2.90195100      0.41504500
H           2.18553200      3.07540000      0.33241400
H           1.56734900      2.23306500      1.76448800
H           4.41846200      0.16812200     -0.37270600
H           4.19245000      2.00598700     -0.58607900
H           2.26143100      0.00205200      0.74531800
