12
b3lypvdz=-157.10929858037 
C           0.24507100      2.16078300      0.26379000
C           3.62654100      0.97848600     -0.39818200
C           1.71293000      2.18777300      0.72314100
C           2.49033100      0.97026800      0.30397900
H          -0.26468500      1.24596600      0.61349800
H           0.16936000      2.18344900     -0.83652300
H          -0.31486600      3.02088500      0.66524000
H           4.14627200      0.05522600     -0.66837000
H           4.08379100      1.91731300     -0.72973600
H           2.21727900      3.09184800      0.34021100
H           1.73342100      2.25945800      1.82837800
H           2.06555500      0.00564600      0.61837600
