23
b3lypvdz=-276.184494752895 
C          -0.46750300      0.79933200      0.44958300
C           0.41721200     -0.44424100      0.26700700
C          -1.77239400      0.71582500     -0.39240300
C          -2.56053500     -0.58577000     -0.16974400
C           0.30269600      2.10747600      0.14302000
C          -2.70685100      1.91581300     -0.16722900
C           1.71443000      2.22385000      0.72937100
H          -0.76952300      0.83127600      1.51742700
H           1.31831000     -0.39345100      0.89551200
H          -0.11699800     -1.36386900      0.54698300
H           0.75042500     -0.55369400     -0.78121200
H          -1.45651900      0.73379000     -1.45565100
H          -3.49059600     -0.57451700     -0.76062300
H          -2.84560500     -0.70856700      0.89078400
H          -1.99444200     -1.47903700     -0.47284900
H           0.36480900      2.23069400     -0.95619300
H          -0.29373400      2.95985100      0.50719400
H          -3.62560500      1.80452800     -0.76549200
H          -3.01126900      1.99240000      0.89237000
H          -2.24545700      2.87224500     -0.45419500
H           2.41109900      1.49100700      0.29221900
H           2.13190700      3.22473600      0.52879200
H           1.72174300      2.07452400      1.82362900
