23
b3lypvdz=-276.185135352607 
C          -0.42207200      0.85396300      0.46060200
C           0.41444000     -0.39980700      0.12528100
C           1.78585200     -0.43688400      0.83914000
C           1.74667900     -0.40818200      2.37352800
C           0.30180000      2.19388100      0.25601900
C          -0.36448400     -1.71189400      0.36719700
C          -1.71044500     -1.83420600     -0.36087700
H          -1.32294800      0.85251000     -0.17621400
H          -0.78981600      0.79223400      1.50231800
H           0.63367200     -0.35541800     -0.96120800
H           2.32028500     -1.34795900      0.51174300
H           2.40373200      0.40570400      0.48299900
H           1.21358100     -1.27669200      2.79286200
H           2.76936700     -0.42367000      2.78450600
H           1.25413700      0.50044600      2.75812300
H           1.12082000      2.34230200      0.97788800
H           0.73326800      2.26620600     -0.75799800
H          -0.40072800      3.03490400      0.38285300
H           0.28300000     -2.55279300      0.05621400
H          -0.53948800     -1.84594400      1.45087500
H          -2.45889000     -1.12685500      0.03173800
H          -2.12649300     -2.84820100     -0.23430300
H          -1.60466900     -1.64854400     -1.44468600
