23
b3lypvdz=-276.189066881864 
C          -0.39482100      0.71185100      0.42975800
C           0.52375500     -0.48253100      0.13839200
C          -1.70684900      0.77140200     -0.36601800
C           1.91429100     -0.32749500      0.76505300
C          -2.58316000     -0.48793200     -0.31484500
C          -3.96460900     -0.27452300     -0.94019400
C           2.80199400     -1.56440700      0.62031700
H           0.16730900      1.64451800      0.23428100
H          -0.62377800      0.72441100      1.51312800
H           0.05726500     -1.41160200      0.51670800
H           0.63014500     -0.62333300     -0.95537800
H          -2.29589300      1.62785300      0.01280600
H          -1.48224700      1.00584600     -1.42484200
H           1.80482300     -0.08089100      1.83844500
H           2.41493500      0.54731800      0.30957200
H          -2.70530100     -0.81487600      0.73566000
H          -2.06737700     -1.31728200     -0.83144500
H          -4.52348600      0.51280700     -0.40553600
H          -4.57469900     -1.19258700     -0.90932500
H          -3.88788500      0.04271800     -1.99559800
H           2.97504900     -1.81998700     -0.43954500
H           3.78625100     -1.41293500      1.09284900
H           2.33818900     -2.44524400      1.09785600
