20
b3lypvdz=-236.902383103569 
C           0.47666900     -0.43154600      0.13057400
C           1.85628200     -0.41036000      0.81395900
C          -2.64737900     -0.55285300     -0.03684000
C          -0.35445700     -1.69685000      0.39404300
C           2.78938600     -1.56733400      0.43526400
C          -1.71903100     -1.74096300     -0.31870400
H          -0.08553700      0.45325500      0.47693100
H           0.61290600     -0.30489300     -0.96154000
H           1.71765000     -0.40022000      1.91162700
H           2.35341700      0.54364900      0.55990600
H          -2.24479000      0.38710500     -0.44835000
H          -3.63648000     -0.71364600     -0.49681000
H          -2.80042700     -0.40837400      1.04718800
H           0.21887100     -2.58469300      0.07475700
H          -0.51161600     -1.80630800      1.48515800
H           2.91534700     -1.63955800     -0.65939300
H           3.78837500     -1.42499000      0.87966200
H           2.40745900     -2.53686800      0.79488100
H          -2.23353500     -2.67266600     -0.02093500
H          -1.55411100     -1.81908400     -1.41007900
