14
b3lypvdz=-158.333693386889 
C          -0.43148400      0.77115000      0.42686300
C           0.50170300     -0.41535200      0.15141700
C          -1.77072100      0.72472900     -0.32669600
C          -2.62701200     -0.51497900     -0.03571600
H           0.09141400      1.70709600      0.15713800
H          -0.63093500      0.83164600      1.51372300
H           1.46880200     -0.28162800      0.66332500
H           0.07038000     -1.36513000      0.50947300
H           0.70543700     -0.52454400     -0.92846600
H          -2.35126200      1.62931500     -0.06800200
H          -1.57567100      0.78465700     -1.41444200
H          -3.60154100     -0.44804100     -0.54628900
H          -2.82124800     -0.62438800      1.04597100
H          -2.13846000     -1.43983000     -0.38509900
