23
b3lypvdz=-276.189097550924 
C          -0.51052700      0.70478000      0.39086000
C           0.45199000     -0.47222000      0.16706400
C          -1.80964400      0.65329700     -0.43652900
C           1.81122000     -0.32566900      0.87115400
C          -2.65391200     -0.59722200     -0.14755200
C           1.73848800     -0.34644300      2.40307900
C          -2.63518000      1.93101300     -0.21631400
H           0.02176800      1.64294700      0.14219600
H          -0.77820100      0.77636700      1.46231700
H          -0.02026500     -1.41289100      0.50389000
H           0.62890400     -0.58525400     -0.91893600
H          -1.52024200      0.62163100     -1.50564700
H           2.47056500     -1.14651500      0.53506200
H           2.29692800      0.61081400      0.53670500
H          -3.59312200     -0.57707600     -0.72449700
H          -2.91921600     -0.66283200      0.92339500
H          -2.12289500     -1.52313300     -0.42201000
H           1.22831100     -1.25671200      2.76601300
H           2.74856000     -0.33120800      2.84454300
H           1.19234600      0.52248000      2.80531200
H          -3.53989300      1.93839600     -0.84647000
H          -2.95970400      2.01744600      0.83635600
H          -2.04737900      2.83230400     -0.46189100
