17
b3lypvdz=-197.618476273798 
C           0.44521900     -0.36257800      0.22164500
C           1.87826900     -0.44290000      0.75617600
C          -2.65619800     -0.57698100     -0.10710900
C          -0.35739100     -1.65013100      0.46060900
C          -1.68999300     -1.75132400     -0.29822200
H          -0.07735400      0.49163900      0.68890200
H           0.47328200     -0.14150200     -0.86292400
H           1.89679300     -0.64445700      1.84228200
H           2.43916500     -1.25659300      0.26511900
H           2.43523100      0.49283700      0.58055000
H          -2.23612100      0.36571900     -0.49686100
H          -3.60364900     -0.75736500     -0.64114300
H          -2.89979400     -0.41243200      0.95731700
H           0.26877200     -2.51374300      0.16519200
H          -0.53514200     -1.76685100      1.54766600
H          -2.19367700     -2.68510400      0.01154700
H          -1.47751000     -1.86833400     -1.37784700
