21
b3lypvdz=-274.962715199574 
C           0.44025200     -0.51469500     -0.03057200
C           1.82259900     -0.35649500      0.65328100
C          -0.31502600     -1.80707700      0.30701600
C           2.74205900     -1.56893600      0.47695100
C          -1.77716600     -1.77526400     -0.14478600
C           3.65267400      1.12235700     -0.33484100
C           2.44791000      0.95005700      0.21919400
H          -0.18304800      0.35020700      0.26592000
H           0.56378800     -0.43363200     -1.12713700
H           1.61173400     -0.25789900      1.73869400
H           0.19426300     -2.66790800     -0.15947400
H          -0.27329300     -1.98442200      1.39840700
H           2.95167900     -1.77776200     -0.58611800
H           3.70597600     -1.40543700      0.98360800
H           2.29028100     -2.47233500      0.91286700
H          -2.32498100     -0.94930800      0.33895900
H          -2.30073500     -2.71125400      0.11107700
H          -1.86202200     -1.63116200     -1.23600000
H           4.33337500      0.28801200     -0.52329900
H           4.00808100      2.11379400     -0.62682000
H           1.81370300      1.83285900      0.37757400
