16
b3lypvdz=-271.604278992147 
C          -1.72207100      0.73378400     -0.28258400
C          -2.56920300     -0.53044200     -0.09932900
C          -3.75699500     -0.28893900     -1.03141700
C          -2.75960800      1.88115700     -0.35615800
C          -4.07732200      1.21797000     -0.84718900
O          -4.82203300     -1.16156800     -0.68483300
H          -0.97214500      0.88278100      0.50974300
H          -1.16465400      0.66510900     -1.23439400
H          -2.96586000     -0.60076100      0.92999200
H          -2.03368200     -1.46545700     -0.32199700
H          -3.42833700     -0.47450800     -2.07665500
H          -2.90552700      2.32365300      0.64264000
H          -2.42171400      2.69865300     -1.01189700
H          -4.46613900      1.67655200     -1.77009100
H          -4.86986500      1.29500200     -0.08363200
H          -5.56164500     -0.97678600     -1.28279800
