23
b3lypvdz=-276.189758871244 
C          -0.39547600      0.79548000      0.47835200
C           0.50512200     -0.41759200      0.20051100
C          -1.71629300      0.75314200     -0.31471100
C          -2.65185100     -0.45043200     -0.07973400
C          -3.86127200     -0.36727000     -1.02738300
C          -3.11850000     -0.54604700      1.38178100
C           0.34922500      2.10795100      0.18200200
H          -0.63834800      0.79423300      1.55741700
H           1.45812900     -0.33346900      0.74857200
H           0.03095600     -1.36183800      0.51500900
H           0.74246000     -0.50122300     -0.87561500
H          -2.28661600      1.67580200     -0.08994700
H          -1.46920000      0.80299700     -1.39332800
H          -2.10260500     -1.37686900     -0.32934000
H          -4.45945700      0.53961800     -0.82643400
H          -4.52688200     -1.23919400     -0.90834600
H          -3.54025200     -0.33118300     -2.08293200
H          -3.61375900      0.38982200      1.69782200
H          -3.84359200     -1.36689600      1.51468500
H          -2.28197000     -0.73307500      2.07451900
H           1.27168900      2.18852200      0.78023000
H           0.63366300      2.17178500     -0.88401100
H          -0.28037000      2.98443900      0.41388000
