23
b3lypvdz=-276.184819187707 
C          -0.48888800      0.82639100      0.43536100
C           0.44115000     -0.38031100      0.22927000
C          -1.79859700      0.70272500     -0.38689500
C          -2.61558100     -0.57087700     -0.05587400
C          -3.09587900     -0.69859900      1.39773600
C           0.27084500      2.13097100      0.13940100
C          -2.68809500      1.95658900     -0.28693100
H          -0.76500000      0.85297900      1.50784400
H           1.37870000     -0.25098400      0.79432200
H          -0.01717900     -1.32062300      0.57276800
H           0.70718500     -0.50288900     -0.83633600
H          -1.49705200      0.60836300     -1.45012300
H          -3.49544300     -0.59189400     -0.72386300
H          -2.02570700     -1.46534700     -0.32033600
H          -3.71632900      0.16006800      1.70467900
H          -3.70982000     -1.60624800      1.52509900
H          -2.25207800     -0.77221000      2.10418400
H           1.21768800      2.16255800      0.70276200
H           0.51785700      2.21941800     -0.93452500
H          -0.30994300      3.02011900      0.42929500
H          -3.64700800      1.79416300     -0.80641000
H          -2.91392200      2.22072700      0.76083800
H          -2.21260500      2.83170900     -0.75496700
