23
b3lypvdz=-276.187864754948 
C          -0.39824700      0.86944900      0.37944800
C           0.53559700     -0.31681900      0.06459700
C          -1.68176700      0.73343600     -0.46490400
C           1.90959800     -0.32051900      0.74411100
C           0.28424100      2.23185600      0.19225600
C          -2.78547500      1.75384100     -0.18519300
C           2.62912100     -1.66185400      0.58254100
H          -0.68913500      0.79032100      1.44678700
H           0.00259900     -1.24606400      0.34189200
H           0.68330800     -0.37655600     -1.03147800
H          -2.08696100     -0.28374800     -0.31074900
H          -1.40112600      0.78605400     -1.53451900
H           1.79988700     -0.08810900      1.81998200
H           2.53767400      0.48501200      0.32471800
H           1.16352800      2.33532400      0.84607000
H           0.62639800      2.37437000     -0.84910600
H          -0.40039700      3.05891700      0.43643100
H          -3.67505600      1.54387600     -0.80064000
H          -3.10270100      1.73278000      0.87192200
H          -2.46569500      2.78346700     -0.41409900
H           2.77700600     -1.91231300     -0.48235700
H           3.61827100     -1.65751900      1.06712400
H           2.04183100     -2.48080400      1.03206700
