23
b3lypvdz=-276.184662800979 
C          -0.47462200      0.80882000      0.44329100
C           0.44134700     -0.41889900      0.21361600
C          -1.77484300      0.69654700     -0.40320700
C           1.84435300     -0.35443900      0.82723900
C          -2.57457200     -0.58143600     -0.10141200
C           0.26852700      2.13088900      0.19322000
C          -2.69973800      1.91686600     -0.26271700
H          -0.78121100      0.80297400      1.51049100
H          -0.06751200     -1.31271400      0.60855500
H           0.54066400     -0.58498400     -0.87701300
H          -1.45374200      0.64533000     -1.46355600
H           1.81401800     -0.13572700      1.90932600
H           2.36371700     -1.31918800      0.69930500
H           2.47383100      0.41475400      0.35242500
H          -3.49084500     -0.61374800     -0.71240500
H          -2.88508100     -0.61666100      0.95875100
H          -2.00416200     -1.49757000     -0.31567200
H           1.15685300      2.21682600      0.83620500
H           0.60946600      2.21108800     -0.85543000
H          -0.36898300      3.00148800      0.40665200
H          -3.62553500      1.76322900     -0.84076500
H          -2.99216000      2.08379700      0.78957100
H          -2.23717000      2.84305800     -0.63417000
