23
b3lypvdz=-276.188001613039 
C          -0.38244100      0.76305200      0.37701500
C           0.54048000     -0.44616600      0.16408100
C          -1.67131700      0.76438700     -0.46108300
C           1.86677500     -0.36762900      0.93688200
C          -2.55184400     -0.48484500     -0.30118200
C          -3.95449600     -0.30858500     -0.88795300
C           1.71079700     -0.41483300      2.45934500
H           0.18585500      1.68532800      0.15329300
H          -0.66041300      0.83203000      1.44433700
H           0.01357300     -1.37132200      0.46034700
H           0.75888500     -0.55215800     -0.91475200
H          -2.26534100      1.65220500     -0.17583100
H          -1.41945800      0.89948300     -1.53017000
H           2.51448200     -1.20315700      0.61690900
H           2.40500600      0.55472200      0.64775200
H          -2.63715700     -0.73839100      0.77237400
H          -2.06019200     -1.35021400     -0.77831900
H          -4.49107000      0.51363500     -0.38550100
H          -4.56041100     -1.22234800     -0.76833400
H          -3.92130100     -0.06677700     -1.96461000
H           1.13739400     -1.30402500      2.77622700
H           2.69061200     -0.45725200      2.96111500
H           1.18008100      0.46756000      2.85215600
