21
b3lypvdz=-312.09411306503 
C           0.61598400     -0.68278000      0.37617100
C          -2.38965400     -0.25336100     -0.30017000
C          -3.73779300     -0.17955700     -1.01882700
C          -0.43466500     -1.79686500      0.37836500
C          -1.63111100     -1.56338800     -0.55371000
C          -4.43087800      1.16785000     -0.81319400
O          -4.53326200     -1.25126900     -0.50316900
H           0.20980000      0.26570900      0.76515400
H           1.48084400     -0.95006200      1.00486500
H           0.99515500     -0.48533600     -0.64221300
H          -1.78206000      0.61321100     -0.61327300
H          -2.58335300     -0.13210000      0.78291300
H          -3.56504700     -0.33299900     -2.10609900
H           0.04848800     -2.74860900      0.09338300
H          -0.80982500     -1.94230900      1.40873400
H          -2.34354400     -2.39658000     -0.43856700
H          -1.29025900     -1.58677900     -1.60719500
H          -3.82547400      1.99257300     -1.22507600
H          -5.40811000      1.19261000     -1.32513100
H          -4.59991800      1.35585300      0.25987100
H          -5.37751700     -1.24941000     -0.97683300
