15
b3lypvdz=-196.394741316677 
C           0.32767200     -0.39688100      0.12054600
C           1.77393300     -0.35381700      0.64523000
C          -0.36327100     -1.72591600      0.42864200
C           3.67050300      1.00395100     -0.30959100
C           2.49342100      0.92397200      0.31722000
H          -0.24631200      0.43776200      0.56380000
H           0.33108300     -0.21592300     -0.96991000
H           1.74878300     -0.48956200      1.74517200
H           2.34137500     -1.21010000      0.23964100
H          -1.38758500     -1.75593200      0.02383300
H           0.19146300     -2.57256400     -0.01064900
H          -0.42354200     -1.90196000      1.51670400
H           4.20568000      0.10221800     -0.62606400
H           4.14817500      1.96238800     -0.52888000
H           1.98712300      1.85146500      0.61990700
