18
b3lypvdz=-272.80402304393 
C          -0.38418300      0.83238800      0.52789700
C          -1.65148400      0.81162300     -0.33056200
C          -2.54344100     -0.43024200     -0.14445800
C          -3.79375100     -0.31279000     -1.01801800
C          -1.82271200     -1.75873700     -0.40963100
O          -4.68421400     -1.37525500     -0.68764800
H           0.31637600      0.02857100      0.24929600
H           0.15477900      1.78743700      0.41407100
H          -0.62635300      0.70960100      1.59831400
H          -2.25474100      1.70876200     -0.09927600
H          -1.36745300      0.90142400     -1.39763700
H          -2.90149700     -0.44010800      0.90403400
H          -4.27331100      0.67384100     -0.84968300
H          -3.49217600     -0.35738200     -2.08734800
H          -1.01011300     -1.93908400      0.31029700
H          -2.53957900     -2.58991900     -0.33373500
H          -1.38452100     -1.77602500     -1.42462700
H          -5.44612700     -1.31870400     -1.28118300
