21
b3lypvdz=-274.962265729 
C          -0.47284800      0.89217700      0.27223300
C           0.43071000     -0.33353200      0.06792800
C          -1.90929800      0.64890100     -0.19800200
C           1.81916700     -0.29386500      0.76051700
C           1.70261600     -0.47856200      2.28428100
C           3.73776800      1.01492800     -0.24852800
C           2.59746600      0.96200000      0.44598600
H          -0.04781300      1.75535500     -0.26920600
H          -0.49079000      1.18092200      1.33853600
H          -0.09888500     -1.23210000      0.43490400
H           0.58081100     -0.48804000     -1.01549700
H          -2.37081100     -0.18530100      0.35695100
H          -2.54156100      1.53909000     -0.04399200
H          -1.94916100      0.39026100     -1.27056600
H           2.39346300     -1.14834800      0.35940100
H           1.11354700     -1.37815600      2.52967200
H           2.69648900     -0.58193200      2.74704400
H           1.20409500      0.38069800      2.76371400
H           4.19512100      0.11103600     -0.66421800
H           4.26027500      1.95811400     -0.43015100
H           2.18024000      1.89395200      0.85089400
