14
b3lypvdz=-158.333398090985 
C           0.47276700     -0.44450300      0.12818000
C          -0.34680600     -1.71791000      0.37442600
C          -2.62277400     -0.54851000     -0.02962100
C          -1.71735300     -1.75119300     -0.32396300
H          -0.00986200      0.44250400      0.57006800
H           1.47390700     -0.53049100      0.58164500
H           0.60756900     -0.25296500     -0.95104400
H           0.23819900     -2.59299900      0.03735800
H          -0.49172000     -1.84737200      1.46391900
H          -2.20040500      0.38699600     -0.43192300
H          -3.61479800     -0.68403600     -0.49100300
H          -2.77248900     -0.41112900      1.05578700
H          -2.24092000     -2.67676500     -0.02254500
H          -1.56451400     -1.82742700     -1.41728500
