17
b3lypvdz=-197.618425596835 
C          -0.52787200      0.87655500      0.46542600
C          -1.79683800      0.69081400     -0.37830600
C          -2.57346700     -0.59431400     -0.01431800
C          -3.09437800     -0.67837200      1.42839600
C          -2.68234200      1.94569100     -0.33793500
H           0.11081700     -0.02291000      0.42954900
H           0.06906400      1.72566000      0.09103800
H          -0.76485600      1.08349700      1.52393600
H          -1.46707200      0.56235400     -1.42828400
H          -3.42702300     -0.69572800     -0.70925800
H          -1.91856800     -1.46398400     -0.21005500
H          -3.78125000      0.15021300      1.66840700
H          -3.65060800     -1.61796200      1.58596700
H          -2.27129500     -0.65662000      2.16185200
H          -3.58222500      1.81938000     -0.96284900
H          -3.01574600      2.18198900      0.68761300
H          -2.13364000      2.82483500     -0.71638000
