12
b3lypvdz=-157.114883785173 
C           3.52279100      0.99648500     -0.44380500
C           1.85872900     -0.36688800      0.81581900
C           2.44040100      0.94274400      0.34309100
C           1.72898900      2.18924600      0.80891600
H           4.03183600      0.08777500     -0.77856100
H           3.93556800      1.95121500     -0.78306000
H           0.80319100     -0.46391600      0.50061700
H           1.87467700     -0.43091500      1.91998600
H           2.41364200     -1.22839900      0.41466500
H           0.67174500      2.18304200      0.48458400
H           2.19989900      3.10075100      0.41092800
H           1.72913300      2.25495900      1.91311900
