17
b3lypvdz=-197.619048151519 
C          -0.39263300      0.85751700      0.45349700
C          -1.68726700      0.72471400     -0.35735700
C          -2.51426400     -0.54035400     -0.06715400
C           0.29832000      2.21264200      0.25099900
C          -1.79356600     -1.87009300     -0.32913600
H           0.30961200      0.05046400      0.17647700
H          -0.62117100      0.72000900      1.52772000
H          -2.32438900      1.60592200     -0.15250800
H          -1.44141900      0.76773300     -1.43684500
H          -3.43275000     -0.50360500     -0.67960300
H          -2.85041800     -0.51592500      0.98681600
H           1.22544600      2.28334200      0.84294400
H           0.56353400      2.37121400     -0.80888300
H          -0.36040200      3.04341500      0.55921400
H          -0.94336100     -2.02065300      0.35610400
H          -2.48338700     -2.71923000     -0.18517700
H          -1.40588500     -1.92261300     -1.36200700
