18
b3lypvdz=-272.803061938783 
C           0.55904000     -0.57782800      0.26878600
C          -2.53943200     -0.32606800     -0.21715600
C          -3.88360400     -0.30706700     -0.93980500
C          -0.44709900     -1.72890700      0.35936300
C          -1.69514300     -1.57295900     -0.52044700
O          -4.60059100     -1.48503500     -0.58716800
H           0.13001000      0.37343700      0.62535900
H           1.45384300     -0.78214300      0.87887600
H           0.89682200     -0.41799600     -0.77049300
H          -1.99330700      0.59305800     -0.49424100
H          -2.73079000     -0.26406000      0.87058900
H          -4.44760000      0.60214900     -0.64583300
H          -3.71785200     -0.24936200     -2.03657800
H           0.06001600     -2.67021400      0.08110800
H          -0.76583700     -1.85521100      1.41124900
H          -2.34061200     -2.45626000     -0.38819600
H          -1.39616100     -1.56245100     -1.58691100
H          -5.43040200     -1.49598400     -1.08360100
