18
b3lypvdz=-235.682022771591 
C           0.41798800     -0.50170000      0.23836100
C           1.87192800     -0.35668300      0.73726800
C           1.72031500      2.21737600      0.73940600
C           2.69377600     -1.58689300      0.34251000
C           3.63715000      1.08675300     -0.34859400
C           2.48322100      0.97954500      0.32512700
H          -0.24312600      0.27976200      0.64279800
H           0.00355400     -1.47491500      0.54967100
H           0.37250800     -0.44842000     -0.86378800
H           1.82399200     -0.33386800      1.84616000
H           0.77323600      2.31854800      0.18174000
H           2.31333000      3.12607900      0.55806600
H           1.44624700      2.18654500      1.80955200
H           2.74062300     -1.70724500     -0.75366100
H           3.72541100     -1.53131900      0.72239400
H           2.23264600     -2.49782800      0.75715700
H           4.21524100      0.21990900     -0.67094900
H           4.04475800      2.06835400     -0.60731800
