11
b3lypvdz=-231.107999187989 
O           5.05022200     -0.01506700     -1.86603600
C           3.41367900     -1.51830100     -0.97817000
C           4.07538600     -0.16104400     -1.14721300
C           3.52538500      1.01734300     -0.41534800
C           2.45220300      1.01175800      0.38719500
H           3.46396900     -1.84771500      0.07351100
H           3.93493900     -2.24711200     -1.61155700
H           2.34909200     -1.48022700     -1.26312400
H           4.09085500      1.93740300     -0.59646100
H           1.86980600      0.10628900      0.57719100
H           2.11356400      1.92337300      0.88711200
