21
b3lypvdz=-274.963702904915 
C           0.36123500     -0.41409600      0.13924600
C           1.76124000     -0.31511900      0.78989800
C           1.67443100     -0.31390100      2.32752800
C          -0.30342100     -1.78982800      0.27433100
C          -1.73647200     -1.81800800     -0.26077000
C           3.65522000      0.92802900     -0.33196000
C           2.49112900      0.91963300      0.32314700
H          -0.29353900      0.35791000      0.58736500
H           0.44214500     -0.15891600     -0.93279800
H           2.35161100     -1.19298100      0.46611800
H           1.25193900     -1.25285600      2.71963100
H           2.66785800     -0.17039200      2.78055200
H           1.02619600      0.50830600      2.67827100
H           0.30932200     -2.53776700     -0.26211400
H          -0.30761200     -2.10656100      1.33227300
H          -2.38157400     -1.11342900      0.29025800
H          -2.18510100     -2.82053200     -0.16354100
H          -1.77769200     -1.53226700     -1.32652900
H           4.16911200     -0.00440700     -0.58971200
H           4.14172100      1.85792600     -0.63753600
H           2.00755000      1.87565500      0.57084400
