17
b3lypvdz=-197.619914994045 
C          -2.49890400     -0.52042000      0.02022600
C          -3.60111000     -0.18982400     -1.00528600
C          -3.03337300     -0.58154600      1.45929900
C          -1.79637600     -1.83808400     -0.33558900
C          -4.19534300      1.21850600     -0.89415700
H          -1.74483700      0.29130000     -0.03393700
H          -4.40996400     -0.94018400     -0.90771200
H          -3.18256200     -0.32427700     -2.01991900
H          -3.49077800      0.36811000      1.78138000
H          -3.80469500     -1.36723900      1.55570300
H          -2.22606300     -0.82089800      2.17165000
H          -0.96708300     -2.05114300      0.35861900
H          -2.50254200     -2.68600900     -0.27807300
H          -1.38122300     -1.81608900     -1.35737000
H          -3.42297000      1.99196800     -1.05050500
H          -4.98151000      1.38290700     -1.64905800
H          -4.65216700      1.40162200      0.09273000
