12
b3lypvdz=-194.233221312226 
O          -4.74590700     -1.33352300     -0.73057200
C          -1.62226600      0.72369100     -0.30268800
C          -2.64298200     -0.40017400     -0.11768000
C          -3.83883200     -0.28572400     -1.05177100
H          -5.51237300     -1.25158900     -1.31542800
H          -0.76198400      0.59640200      0.37293100
H          -2.06822000      1.71214000     -0.09296500
H          -1.22641100      0.75144800     -1.33325000
H          -3.02548600     -0.40703200      0.91843100
H          -2.16445300     -1.38164400     -0.28187500
H          -4.31104000      0.71353000     -0.92825200
H          -3.49384500     -0.35312500     -2.10648000
