23
b3lypvdz=-276.18779633603 
C           0.62705400     -0.42942200     -0.06277700
C           1.85671200     -0.43093600      0.85881900
C          -2.56869500     -0.41851900     -0.11995300
C          -3.98124100     -0.46778900     -0.70345700
C          -0.30284700     -1.64113800      0.10492800
C           2.76341100     -1.65876200      0.74215500
C          -1.64827000     -1.53667300     -0.63176800
H           0.06078300      0.49597000      0.13763500
H           0.95430700     -0.36459200     -1.11844800
H           1.51466300     -0.33079500      1.90631900
H           2.45235500      0.47502900      0.64768300
H          -2.12097600      0.56588900     -0.34322400
H          -2.62687900     -0.48559200      0.98268900
H          -4.62281800      0.31438900     -0.26642300
H          -4.46177300     -1.44118500     -0.50058100
H          -3.97868100     -0.32087800     -1.79734000
H           0.21777300     -2.55170600     -0.23793200
H          -0.50830100     -1.79514100      1.18237700
H           3.12842700     -1.79821800     -0.29025400
H           3.64638400     -1.55823900      1.39380400
H           2.24274100     -2.58409200      1.03841600
H          -2.17760000     -2.50196800     -0.52819300
H          -1.47062800     -1.40043200     -1.71577500
