17
b3lypvdz=-197.618788183267 
C           0.55988500     -0.52426100      0.30380500
C          -2.53435400     -0.38086100     -0.20513200
C          -3.91181900     -0.43376300     -0.86978200
C          -0.38702800     -1.72720600      0.33508700
C          -1.64853500     -1.59310900     -0.53177900
H           0.08270200      0.38520400      0.70496200
H           1.46117100     -0.71392400      0.90917800
H           0.89330100     -0.29509800     -0.72355200
H          -2.01488100      0.54619800     -0.50821000
H          -2.66322400     -0.31030600      0.89183400
H          -4.53751500      0.42655300     -0.57970300
H          -4.45783800     -1.34878800     -0.57925300
H          -3.83518400     -0.43317900     -1.97116600
H           0.16470600     -2.62807000      0.01129600
H          -0.69446300     -1.91957900      1.38042700
H          -2.24912600     -2.51394200     -0.40875500
H          -1.36330000     -1.55936700     -1.60115600
