17
b3lypvdz=-197.620709011582 
C          -0.42691500      0.77286600      0.43100600
C           0.47516200     -0.42902400      0.11539500
C          -1.76660300      0.75072300     -0.31571100
C           1.83966200     -0.37115900      0.81460000
C           2.75441900     -1.55105300      0.46645000
H           0.11415200      1.70545900      0.18292400
H          -0.61701800      0.80560800      1.52023500
H          -0.04451000     -1.36100200      0.41166300
H           0.62881300     -0.49446400     -0.97920700
H          -2.33704100     -0.16709300     -0.08794300
H          -2.39687900      1.61131400     -0.03469600
H          -1.61401800      0.78861700     -1.40861600
H           1.68512100     -0.33999300      1.90939800
H           2.34655300      0.57488700      0.54578900
H           2.97815300     -1.57740900     -0.61415500
H           3.71329000     -1.48764300      1.00638800
H           2.28285800     -2.51313400      0.73428000
