20
b3lypvdz=-236.905120594723 
C          -0.57882700      1.09045200      0.54682000
C          -1.52604300      0.65592200     -0.57945900
C          -2.54484800     -0.43078500     -0.18643900
C          -3.60113700     -0.61784100     -1.28304900
C           0.28102100      2.30276300      0.18510700
C          -1.87872900     -1.77485900      0.14485000
H           0.08007100      0.25232600      0.83418600
H          -1.17826000      1.32461300      1.44606100
H          -2.08256500      1.54447300     -0.93319000
H          -0.93558700      0.30710900     -1.44944600
H          -3.06545100     -0.07219200      0.72382600
H          -4.10150300      0.33219700     -1.53476300
H          -4.37729300     -1.33611600     -0.97132300
H          -3.14387200     -1.00829000     -2.21011900
H           0.96257600      2.57543400      1.00722900
H           0.90158400      2.10838200     -0.70688100
H          -0.34371300      3.18564700     -0.03543000
H          -1.15160400     -1.69457200      0.96792900
H          -2.63085400     -2.52459900      0.43974400
H          -1.34276600     -2.17116500     -0.73705300
