17
b3lypvdz=-309.685408322047 
O           5.14866000     -0.05068100     -1.82243100
C           0.21311400      2.34961700      0.32166800
C           1.67734000      2.17076900      0.76457200
C           3.56977500     -1.60897300     -0.93146000
C           4.13442600     -0.21469500     -1.16158300
C           3.44794100      0.96488800     -0.57227400
C           2.33291600      0.95328600      0.17829900
H          -0.39817700      1.46724000      0.57873900
H           0.14278300      2.50173900     -0.76807600
H          -0.24169900      3.22094000      0.81898300
H           2.26621500      3.06630300      0.50453000
H           1.70156600      2.08250300      1.86812400
H           3.57877700     -1.86403200      0.14184100
H           4.18621500     -2.33168900     -1.48063500
H           2.52523100     -1.67901900     -1.27749900
H           3.95080400      1.91054100     -0.80568700
H           1.84141400     -0.00333600      0.40028900
