20
b3lypvdz=-236.902585487967 
C          -0.43779200      0.84306300      0.43119800
C           0.45550100     -0.38905600      0.16438900
C          -1.74014700      0.70117400     -0.38660300
C           1.82156400     -0.40813100      0.86333900
C           0.28816200      2.17052700      0.16299100
C          -2.73910000      1.86114600     -0.27474300
H          -0.71697700      0.82899100      1.50432800
H          -0.11089700     -1.28977200      0.46584900
H           0.61398300     -0.48153800     -0.92735100
H          -2.24243700     -0.23165500     -0.07045400
H          -1.47578000      0.55764500     -1.45199400
H           1.72491600     -0.25791700      1.95313400
H           2.32331300     -1.37770800      0.70294100
H           2.49524500      0.37173200      0.47208800
H           1.18420400      2.27475600      0.79494000
H           0.60744700      2.24979800     -0.89242000
H          -0.35895600      3.03383100      0.38760900
H          -3.68005800      1.61174500     -0.79287300
H          -2.98706900      2.08521700      0.77750400
H          -2.35052200      2.78435400     -0.73437500
