15
b3lypvdz=-233.520200751182 
C          -1.62724300      0.77611900     -0.30729000
C          -2.55470800     -0.43004900     -0.12585900
C          -3.78604700     -0.30150000     -1.02305500
C          -1.82999300     -1.75924100     -0.36864500
O          -4.67863700     -1.36975100     -0.72534500
H          -0.74155600      0.69483400      0.34258200
H          -2.13867400      1.72202100     -0.05976900
H          -1.26313100      0.85319400     -1.34773100
H          -2.92962500     -0.42773600      0.91540000
H          -4.27033500      0.68199500     -0.84784800
H          -3.46334100     -0.32648800     -2.08698600
H          -0.98793800     -1.88882800      0.33003000
H          -2.52562000     -2.60196700     -0.24212100
H          -1.42222700     -1.80374600     -1.39509400
H          -5.43822600     -1.29965700     -1.32006800
