21
b3lypvdz=-274.987298844685 
C          -1.70647400      0.87847800     -0.41480300
C          -2.42840900     -0.44933400     -0.11680200
C          -3.72820700     -0.30362500     -0.93040500
C          -0.41161800     -1.92817600      0.47934800
C          -2.82697700      1.93963900     -0.40094200
C          -1.64163100     -1.72988700     -0.40701300
C          -4.13223100      1.18229500     -0.79208100
H          -0.89604200      1.10765300      0.29476200
H          -1.24602600      0.81813000     -1.41966600
H          -2.70225400     -0.44895200      0.95925700
H          -4.51548600     -1.00142000     -0.60285000
H          -3.50512000     -0.54414400     -1.98714100
H           0.32307500     -1.11565500      0.34902400
H           0.10348000     -2.87462600      0.24636900
H          -0.69032500     -1.95249200      1.54767900
H          -2.92514700      2.36990300      0.60965600
H          -2.60687600      2.78156300     -1.07585200
H          -2.32063200     -2.59358300     -0.28382700
H          -1.33674100     -1.73077700     -1.47202300
H          -4.57136300      1.57204300     -1.72383900
H          -4.90109500      1.31076700     -0.01255100
