14
b3lypvdz=-158.333819566605 
C          -0.43435100      0.88802300      0.49590300
C          -1.72253900      0.74671500     -0.32312700
C          -2.51525800     -0.54530300     -0.05890700
C          -1.75603500     -1.84528800     -0.35812800
H           0.30998300      0.12054200      0.22584300
H           0.03515500      1.87121300      0.32335300
H          -0.63784600      0.79689200      1.57787100
H          -2.38086100      1.60813800     -0.10684300
H          -1.47582400      0.81086100     -1.40036600
H          -3.43659700     -0.52028800     -0.66771800
H          -2.84673100     -0.55635800      0.99674700
H          -0.89303700     -1.98254100      0.31350100
H          -2.41594400     -2.71955100     -0.22615900
H          -1.37951600     -1.86205600     -1.39627000
