23
b3lypvdz=-276.186930032448 
C          -0.43864300      0.80866800      0.47370500
C           0.46990500     -0.40598100      0.18158600
C          -1.75782900      0.73567700     -0.32408400
C           1.84739900     -0.42817500      0.86746600
C          -2.60330300     -0.52532600     -0.09681100
C           1.79115400     -0.41673100      2.39966300
C           0.25987000      2.14997700      0.19483100
H          -0.70884300      0.78698800      1.54770800
H          -0.06702400     -1.32451700      0.47801600
H           0.62072600     -0.48014300     -0.91292100
H          -2.36730500      1.62002100     -0.06265100
H          -1.52739300      0.83110000     -1.40289200
H           2.37597300     -1.34081600      0.53708900
H           2.46672000      0.41531700      0.51287500
H          -3.57260200     -0.44285200     -0.61487800
H          -2.80935000     -0.68315800      0.97643200
H          -2.10618000     -1.43006700     -0.48178100
H           1.15681900     -1.23467100      2.78371800
H           2.79742900     -0.54338400      2.83218600
H           1.38181600      0.53019800      2.79048400
H           1.12529900      2.31404800      0.85538100
H           0.61728500      2.20297400     -0.84932900
H          -0.43592400      2.99175200      0.35380600
