21
b3lypvdz=-274.993806083526 
C          -0.40472000      0.79693100      0.43813700
C           0.44489900     -0.44254000      0.11378900
C          -1.76398900      0.75711600     -0.27888300
C          -2.55774600     -0.54410000     -0.02088700
C          -3.17684400     -0.58552200      1.38514200
C          -0.31477000     -1.75046400      0.39047100
C          -1.67969000     -1.78161500     -0.31687700
H           0.14102400      1.71151100      0.14638200
H          -0.55677800      0.86602000      1.53143400
H           1.38460800     -0.42266100      0.69126300
H           0.73435500     -0.41063400     -0.95442500
H          -2.37643300      1.62884400      0.01390500
H          -1.58651400      0.85347100     -1.36723600
H          -3.40243600     -0.56212300     -0.73436300
H          -3.83161800      0.28642500      1.55497800
H          -3.79449800     -1.49086100      1.51496300
H          -2.41557500     -0.58750200      2.18362900
H           0.29054900     -2.61231200      0.05792400
H          -0.45068800     -1.87478000      1.48098500
H          -2.22932400     -2.69844300     -0.03648300
H          -1.50851400     -1.84306100     -1.40824800
