17
b3lypvdz=-197.618668135948 
C          -0.38406500      0.80457500      0.45557300
C           0.54426600     -0.35754100      0.06925200
C           1.91700100     -0.35654000      0.75231000
C           0.20607700      2.20664800      0.26306200
C           2.70398600     -1.64735300      0.51204700
H          -1.31271000      0.71716100     -0.13626700
H          -0.68966100      0.68649300      1.51223900
H           0.02719400     -1.30454800      0.31651700
H           0.68926200     -0.37270300     -1.02862600
H           1.78544200     -0.20540000      1.84106100
H           2.50928000      0.50646200      0.39759200
H           1.05137500      2.39409700      0.94538200
H           0.57747100      2.35628900     -0.76672800
H          -0.55188800      2.98232000      0.46326200
H           2.88728100     -1.81301300     -0.56406800
H           3.68164800     -1.62846300      1.01967900
H           2.15104100     -2.52518400      0.88971300
