17
b3lypvdz=-197.618532115755 
C           0.46001700     -0.48972100      0.04898300
C           1.80521900     -0.38862900      0.78488900
C          -0.31925200     -1.79502800      0.26690300
C           2.79155100     -1.53420100      0.53148200
C          -1.75844400     -1.72773900     -0.25221800
H          -0.17251900      0.35680600      0.37869200
H           0.61507600     -0.34192400     -1.03808800
H           1.61216200     -0.31601900      1.87220900
H           2.28350700      0.56671100      0.50124600
H           0.21377400     -2.63010500     -0.22283900
H          -0.33319100     -2.03941900      1.34694000
H           3.01925100     -1.65068500     -0.54293200
H           3.74458300     -1.35644800      1.05646200
H           2.39700500     -2.50056900      0.88919300
H          -2.32710900     -0.93023800      0.25631000
H          -2.30019100     -2.67409500     -0.08562800
H          -1.79093900     -1.50979700     -1.33500500
