17
b3lypvdz=-197.619781273798 
C          -0.39959800      0.80419900      0.48238800
C           0.42932700     -0.43124700      0.10255500
C           1.80175000     -0.39225500      0.80052200
C          -0.34660000     -1.72657300      0.38399900
C           2.74903900     -1.54389000      0.44174700
H          -1.35912700      0.82521500     -0.05979500
H           0.14264800      1.73486600      0.24236100
H          -0.62450000      0.81620500      1.56423900
H           0.61274600     -0.38440000     -0.98968600
H           1.64839400     -0.37465100      1.89699900
H           2.29325400      0.56468100      0.54471500
H          -1.33765200     -1.70241300     -0.09866100
H           0.18203600     -2.61211100     -0.00321200
H          -0.50418600     -1.87254900      1.46819000
H           2.89776600     -1.61530100     -0.64986800
H           3.73774600     -1.39571500      0.90608600
H           2.36425900     -2.51506400      0.79352300
