20
b3lypvdz=-236.90604488284 
C          -0.42780100      0.89014200      0.42288400
C          -1.73156800      0.85270700     -0.38711200
C          -2.59177400     -0.39144700     -0.12063000
C          -3.85746900     -0.45382000     -0.98427800
C           0.39699400      2.16833700      0.20461600
C           1.77085200      2.13340400      0.88670000
H           0.18838100      0.01088200      0.15330600
H          -0.66171400      0.78607500      1.49982900
H          -2.32843200      1.75891900     -0.16662900
H          -1.48343000      0.89976600     -1.46480100
H          -2.87658500     -0.41456000      0.94811200
H          -1.98395700     -1.29816600     -0.29981400
H          -4.49584500      0.43274200     -0.82401900
H          -4.46210000     -1.34591800     -0.74890700
H          -3.60212200     -0.49426700     -2.05791000
H           0.53649200      2.32964000     -0.88088300
H          -0.17662700      3.03811700      0.57570300
H           2.38040600      1.29528300      0.50717700
H           2.33465400      3.06396300      0.70341000
H           1.67434600      2.00850100      1.97964600
