20
b3lypvdz=-236.902920674914 
C          -0.40071100      0.85753900      0.43542700
C           0.43052500     -0.39436800      0.08867200
C           1.78312200     -0.42460900      0.81920300
C           0.32148100      2.19837300      0.23363300
C          -0.34104200     -1.70352500      0.36162900
C          -1.71660200     -1.82885800     -0.30811900
H          -1.31202000      0.86066000     -0.18656100
H          -0.74551400      0.78617100      1.48588000
H           0.64181300     -0.35582700     -1.00058000
H           1.64777800     -0.36688000      1.91486600
H           2.32654000     -1.35973400      0.59951900
H           2.43560100      0.40935000      0.51576700
H           1.14706700      2.33860100      0.94971900
H           0.74288400      2.27913200     -0.78410000
H          -0.37927300      3.03863900      0.37477800
H           0.29234300     -2.54737400      0.03118100
H          -0.46258600     -1.82611500      1.45599500
H          -2.44560700     -1.11270000      0.10463700
H          -2.13214000     -2.83890200     -0.15151700
H          -1.65415900     -1.65767300     -1.39763000
