13
b3lypvdz=-249.289949298197 
N           0.06536400     -1.45250000      1.35612900
C          -0.46263800     -0.68309300      0.47483300
C          -1.84161500     -0.88099700      0.04399900
C          -2.44282000     -0.09442500     -0.87721100
C          -3.81241600     -0.21768300     -1.38398200
C          -4.72358600     -1.13877000     -1.02484400
H           1.03632900     -1.16422800      1.53812700
H           0.06975600      0.15845600     -0.01331700
H          -2.36399700     -1.71450200      0.52401500
H          -1.85263300      0.72221700     -1.31029100
H          -4.09953700      0.52434100     -2.13712400
H          -4.51280400     -1.90950500     -0.27787900
H          -5.71800200     -1.14631100     -1.47635500
