16
b3lypvdz=-288.56248574831 
N          -0.03940700     -1.64199300      1.06863300
C           0.14628300      0.70088700      0.36742600
C          -0.55758300     -0.60550100      0.50059100
C           1.30163900     -1.56075100      1.62776500
C          -1.91293400     -0.80176800     -0.05903200
C          -0.39020100      1.90942000      0.58667800
C          -2.55921800     -0.00494600     -0.92339100
H           1.21086900      0.64032900      0.11493400
H           2.06958900     -1.48613600      0.83287700
H           1.50798300     -2.47876800      2.19830000
H           1.44187200     -0.69450700      2.30081600
H          -2.36437500     -1.74503600      0.26345200
H           0.21722700      2.81526300      0.50923000
H          -1.43741600      2.03390600      0.87414400
H          -3.54537300     -0.28277700     -1.30341700
H          -2.12755400      0.92727800     -1.29380500
