18
b3lypvdz=-310.602430951628 
C           0.09432700      0.69660200      0.65924200
C          -0.61236100     -0.46713600      0.61939300
C          -1.99523300     -0.63314500      0.23837700
C          -0.38099500      2.01865200      0.29567600
C           0.36766200      3.13551800      0.37067200
C          -2.63343700     -1.83127800      0.24705400
C          -4.02749800     -2.08759700     -0.10995700
C          -4.91255400     -1.22140800     -0.63839200
H           1.13478200      0.64545300      0.99897500
H          -0.09149100     -1.38106900      0.92748400
H          -2.55483300      0.25907600     -0.05882800
H          -1.40998300      2.10655400     -0.06801900
H          -0.03173400      4.10852100      0.07704500
H           1.40225500      3.10473400      0.72700500
H          -2.05840100     -2.70827900      0.56634300
H          -4.37181500     -3.10975300      0.08404800
H          -4.64852700     -0.18761100     -0.87898300
H          -5.93506400     -1.53443400     -0.86053400
