15
b3lypvdz=-304.620079121181 
N           2.22815200     -0.37448200     -0.45142300
N           3.30607200     -2.40362200      0.23533200
C           1.51328700      0.79120100     -0.08586200
C           0.17261700      0.63303100      0.50775300
C          -0.59724300     -0.46325000      0.45166500
C           2.46850500     -1.45312200      0.39680900
C           2.00138900      2.02141600     -0.35161400
H           2.93675900     -0.23641500     -1.16776800
H           3.83521700     -2.28381900     -0.64226400
H          -0.21219200      1.53445700      0.99509200
H          -0.26979300     -1.37736600     -0.04756500
H          -1.59389400     -0.46429800      0.89804200
H           1.82940600     -1.45478500      1.29022800
H           1.39971400      2.90725700     -0.14418500
H           2.98420400      2.16399700     -0.80514100
