8
b3lypvdz=-133.858765472084 
C           1.33438700     -1.58064700      1.59214400
N          -0.03563500     -1.65647700      1.11714300
C          -0.51573400     -0.62504500      0.55860400
H           1.92949600     -2.36808200      1.10034800
H           1.35389400     -1.79886000      2.67416600
H           1.81930500     -0.59730300      1.41084700
H           0.05082500      0.31976500      0.41613400
H          -1.54593800     -0.65155100      0.17471500
