11
b3lypvdz=-227.267729497188 
N           2.33691800     -0.30473500     -0.32097100
N          -0.11268800     -1.68906900      1.03157000
C           1.45750300      0.74538200     -0.14354500
C           0.17196700      0.67511700      0.29257900
C          -0.55413600     -0.55006300      0.62049900
H           1.90486700     -1.21734100     -0.46033100
H           3.09006100     -0.13156400     -0.97966300
H           0.90078900     -1.62974300      1.21198900
H           1.88906700      1.72517200     -0.37234300
H          -0.38627100      1.61303400      0.34039600
H          -1.65037800     -0.48859000      0.48912300
