5
b3lypvdz=-40.480444154979 
C           1.35307500     -1.59726000      1.60611100
H           0.31593900     -1.61402800      1.23818400
H           2.03940500     -1.50053000      0.75232000
H           1.56683400     -2.53215100      2.14675200
H           1.48924600     -0.74403200      2.28713200
