15
b3lypvdz=-325.509474407999 
N          -0.04294600     -1.43404900      1.39614500
C          -0.53325300     -0.69547100      0.47482500
C          -1.93105200     -0.84928100      0.01687000
C          -2.44094200     -0.00990300     -0.98676600
C          -2.76469600     -1.83594200      0.57541000
C          -3.75808600     -0.15355300     -1.43223600
C          -4.07629600     -1.98058400      0.12995400
C          -4.57583600     -1.14279000     -0.87798200
H           0.93655000     -1.18004600      1.57566400
H           0.03493400      0.09953800     -0.04785600
H          -1.79653900      0.75927700     -1.42335700
H          -2.35300400     -2.47748700      1.35639700
H          -4.14591100      0.50512600     -2.21321100
H          -4.71887200     -2.74749900      0.56937300
H          -5.60235200     -1.26533600     -1.23263000
