9
b3lypvdz=-171.935411095613 
N           0.01480100     -1.71660100      0.86761300
C          -0.52549800      1.89164100      0.47623900
C           0.13707800      0.73354000      0.60999200
C          -0.53239500     -0.56753900      0.73890700
H           1.04365100     -1.61422000      0.87067800
H          -0.00322600      2.84615700      0.38194000
H          -1.62038400      1.91755700      0.45428700
H           1.23524400      0.72360000      0.62783600
H          -1.63687200     -0.54003400      0.72220900
