18
b3lypvdz=-310.592971254329 
C           1.62496700      0.60952800      0.54324400
C           0.28509200      0.67597200      0.36326000
C          -0.46942900     -0.56664400      0.13866300
C          -1.73149900     -0.75489600     -0.32479500
C          -0.41944800      1.97778100      0.47367500
C          -0.00478900      3.13348600     -0.06283700
C          -2.69507400      0.22394600     -0.80706100
C          -3.94071300     -0.10444600     -1.19664000
H           2.15576800     -0.34428600      0.47941400
H           2.20981500      1.50314900      0.76864400
H           0.09286500     -1.47523400      0.37939300
H          -2.07743700     -1.79462700     -0.37462700
H          -1.34794000      1.96364800      1.05605400
H          -0.55962300      4.06097100      0.10110900
H           0.89223000      3.18737700     -0.68650600
H          -2.37680800      1.26642900     -0.87956100
H          -4.29824600     -1.13834600     -1.15003100
H          -4.63843000      0.64809100     -1.56939900
