16
b3lypvdz=-288.567021698795 
N           2.29311900     -0.30869100      0.25685500
C           1.53817400      0.83605500     -0.06229300
C           0.10208500      0.76050700      0.35112800
C          -0.60294000     -0.51966000      0.09571400
C          -1.92129800     -0.66920500     -0.09036400
C           2.03148500      1.88196300     -0.75504600
C          -0.48253800      1.81605500      0.95097100
H           2.15886200     -0.62653700      1.21669500
H           3.28590900     -0.20209100      0.05960000
H           0.04624900     -1.39639800      0.01084000
H          -2.61095100      0.17996300     -0.08331400
H          -2.35326600     -1.65548600     -0.27661500
H           1.37374200      2.66970900     -1.11936400
H           3.09155300      1.93966600     -1.01711200
H           0.07970900      2.73275200      1.13739800
H          -1.52259400      1.78129700      1.28240900
