13
b3lypvdz=-282.593509124371 
N           2.47521400     -0.49458500     -0.66450400
N           0.04220900     -1.37168800      0.48825100
N           3.43848600     -2.35742900      0.47824600
C          -0.77256600     -0.49486300      0.90972700
C           2.51157400     -1.49074700      0.29827900
C           1.29637600     -1.53383900      1.21496900
H           1.80588700      0.25777600     -0.54618500
H           3.36069400     -0.20964500     -1.07017400
H           4.22312500     -2.18491700     -0.16754600
H          -0.58498600      0.15322900      1.79179700
H          -1.73147300     -0.36476300      0.38761000
H           1.30585500     -2.52317400      1.69513700
H           1.41740500     -0.76455200      2.01179300
