16
b3lypvdz=-288.562542587947 
N           0.00137200     -1.65901400      1.09656100
C           1.43119200      0.87924100     -0.22656000
C           0.20478600      0.68809300      0.27455300
C          -0.46475700     -0.63064200      0.47547200
C           1.31176500     -1.66948700      1.71100700
C          -1.83455500     -0.77786500     -0.06905000
C          -2.44959300      0.07825100     -0.89776400
H           2.06169300      0.04767500     -0.55207100
H           1.83738600      1.88616700     -0.35562700
H          -0.39868600      1.56430100      0.54067900
H           2.00711000     -2.23863100      1.06665800
H           1.24579000     -2.23068200      2.65772400
H           1.75959500     -0.67749100      1.90251000
H          -2.32760900     -1.70033300      0.25202000
H          -3.45858700     -0.12154800     -1.26570200
H          -1.96900300      0.99376500     -1.25181000
