15
b3lypvdz=-304.621856020894 
N           2.37034300     -0.29508700     -0.26302100
N           0.01174900     -1.70717200      1.02459100
C           1.43894000      0.72230100     -0.17759200
C           0.13461200      0.61054600      0.18525300
C          -0.54474300     -0.64873300      0.52144900
C          -2.00973900     -0.69311700      0.23834100
C          -2.80690400     -1.69068200      0.64000900
H           1.98088000     -1.23051600     -0.38017800
H           3.14632300     -0.11687700     -0.89323000
H           0.98411200     -1.50253000      1.28505900
H           1.84186200      1.71147100     -0.41710300
H          -0.46486200      1.52393900      0.17044000
H          -2.42342200      0.15156700     -0.32357400
H          -3.87408800     -1.69926100      0.40461900
H          -2.38876000     -2.52524900      1.20853800
