18
b3lypvdz=-310.602472040323 
C           1.44078900      0.90296300      0.20696000
C           0.13493100      0.70055100     -0.10685400
C          -0.53462200     -0.56534100      0.07077900
C          -1.82441000     -0.86434300     -0.24952600
C           2.19725800      2.14724400      0.08702700
C           1.73403100      3.37012800     -0.23346000
C          -2.79842700      0.02182400     -0.86004200
C          -4.05659500     -0.34481800     -1.16986000
H           2.00440600      0.04577900      0.59386800
H          -0.44461900      1.53287400     -0.51822300
H           0.07059500     -1.36529100      0.51211900
H          -2.17681700     -1.87785700     -0.02863500
H           3.26741500      2.05376600      0.30522800
H           0.67930200      3.56375600     -0.44898500
H           2.41154400      4.22491100     -0.29090200
H          -2.48013200      1.04301500     -1.09288800
H          -4.42005500     -1.35574400     -0.96078600
H          -4.75779500      0.35178300     -1.63362100
