15
b3lypvdz=-304.621625465059 
N           2.37764200     -0.32753400     -0.40693000
N           3.09262100     -2.54517900      0.14316700
C           1.51531000      0.75641900     -0.26406600
C           0.31884300      0.78056000      0.36501700
C           2.37376800     -1.50463300      0.32705600
C          -0.47989700      1.99270500      0.55293600
C          -0.03251900      3.25840900      0.64290600
H           3.10334000     -0.24296900     -1.11124400
H           3.69413100     -2.43306900     -0.68798200
H           1.89327600      1.66751800     -0.73800700
H          -0.11755400     -0.14960800      0.74157600
H           1.67288800     -1.48761400      1.17344400
H          -1.56114800      1.82430400      0.63738100
H          -0.72992100      4.09375800      0.73925200
H           1.03441900      3.50203100      0.63859300
