14
b3lypvdz=-233.245353184959 
C           0.07752800      0.73853200      0.54060600
C          -0.72171600     -0.48075700      0.66690900
C          -2.03018100     -0.63311300      0.35213000
C          -0.36823300      1.99409300      0.35419100
C          -2.75979800     -1.87683600      0.51693900
C          -4.05606100     -2.04747600      0.19795800
H           1.16054100      0.58835500      0.62671600
H          -0.18751700     -1.35946500      1.04777100
H          -2.58984500      0.21248000     -0.06523100
H           0.33049200      2.82801500      0.25861200
H          -1.43406100      2.23373100      0.29394200
H          -2.19464200     -2.72032000      0.93254700
H          -4.65163900     -1.22877900     -0.21734800
H          -4.55976800     -3.00546100      0.34425500
