16
b3lypvdz=-288.583719034047 
N           2.39641900     -0.23121800      0.16480800
C           1.46096000      0.71449800     -0.22439500
C           0.10563100      0.60381600     -0.22068400
C          -0.66391400     -0.57315200      0.11039300
C          -2.02170000     -0.62827100      0.13414800
C          -2.78660200     -1.81308000      0.46552700
C          -4.13205800     -1.87811800      0.50607100
H           2.08071100     -1.19658500      0.19423400
H           3.30200500     -0.14765200     -0.28649100
H           1.90891600      1.67034400     -0.51321300
H          -0.45607700      1.49957000     -0.49930800
H          -0.12054800     -1.49345300      0.36433100
H          -2.59082000      0.27808400     -0.10894400
H          -2.20608200     -2.71422700      0.70322900
H          -4.75122800     -1.00427000      0.27965900
H          -4.65121200     -2.80188500      0.77023500
