18
b3lypvdz=-310.605749582118 
C           1.34230700      0.87271800      0.08120000
C          -0.01033000      0.75009200      0.10763100
C          -0.69961100     -0.50617000      0.26097300
C          -2.05086100     -0.64635800      0.29760800
C           2.11690200      2.10084900     -0.08042100
C           1.65467700      3.34629600     -0.30230400
C          -2.73430300     -1.91677200      0.43024900
C          -4.07202800     -2.06673000      0.45767000
H           1.93134200     -0.04437100      0.19970500
H          -0.63643100      1.64540500      0.01158500
H          -0.07922100     -1.40777300      0.34943900
H          -2.67829300      0.25038600      0.21377600
H           3.20309200      1.96832200     -0.01062600
H           0.58819500      3.56988500     -0.40002700
H           2.34345900      4.18751000     -0.40520500
H          -2.09532500     -2.80524400      0.51278500
H          -4.74135800     -1.20427200      0.37778900
H          -4.53731200     -3.04937300      0.55967200
