16
b3lypvdz=-288.565466426563 
N          -0.01941500     -1.67753200      1.27829400
C          -0.61795700     -0.85796300      0.50882900
C           1.37165100     -1.42197500      1.58908100
C          -2.04294400     -1.00742800      0.09833900
C          -2.54596800      0.02629200     -0.83137200
C          -2.76401000     -2.04228300      0.57842700
C          -3.72177100      0.05506100     -1.47629000
H          -0.09299300      0.02665700      0.08803000
H           1.98407400     -2.28301600      1.26701700
H           1.49667100     -1.34542000      2.68382400
H           1.77871600     -0.50471400      1.11594500
H          -1.85036100      0.85611700     -1.00867200
H          -3.81277600     -2.19404300      0.31544900
H          -2.28627100     -2.75636400      1.25133300
H          -4.46883400     -0.73740400     -1.37602000
H          -3.97731300      0.88831500     -2.13471300
