12
b3lypvdz=-211.219433822198 
N          -0.04177600     -1.70589100      1.15996800
C          -0.54899600     -0.77341000      0.44925600
C           1.31234700     -1.51592200      1.63916100
C          -1.90293700     -0.87188100     -0.09646600
C          -2.43826300      0.07255000     -0.88465800
H           0.00972200      0.15536500      0.20053900
H           1.96645600     -2.28769500      1.19693800
H           1.34124300     -1.67293200      2.73171200
H           1.73890700     -0.51784900      1.40573400
H          -2.45905500     -1.77476600      0.17430800
H          -3.44773400     -0.01955200     -1.29094500
H          -1.87541300      0.97238400     -1.15314500
