12
b3lypvdz=-211.217833822753 
N           2.34824700     -0.25846800     -0.17936600
C           1.39813500      0.77676700     -0.10806000
C           0.09902300      0.57085000      0.19381600
C           1.94138000      2.09693400     -0.49406200
C           1.55399400      3.27372200      0.01392700
H           2.01425100     -1.13391100      0.21880900
H           3.24063100     -0.00980900      0.24698800
H          -0.26350700     -0.41283700      0.50231100
H          -0.62858000      1.37426300      0.08317000
H           2.74153300      2.06237600     -1.24423800
H           0.79101200      3.33570800      0.79480700
H           1.99278100      4.21030400     -0.33810300
