9
b3lypvdz=-171.931873233508 
C          -2.78123400     -1.73654800      0.57784400
N           0.00294200     -1.53496500      1.31421500
C          -1.96641800     -0.75885200      0.15714200
C          -0.53494200     -0.68414400      0.52515100
H          -3.83284500     -1.76881200      0.28292500
H          -2.39613300     -2.52860000      1.22564800
H           0.99963000     -1.31964300      1.44417400
H          -2.34370900      0.03702600     -0.49378900
H           0.02131000      0.15513900      0.06359000
