10
b3lypvdz=-155.88559198641 
C          -2.49298400     -0.03362500     -1.01342800
C          -1.91284000     -0.68010100      0.01040000
C           0.17588600      0.65088800      0.39609600
C          -0.53793200     -0.48161300      0.49184800
H          -3.52898800     -0.23958000     -1.29375800
H          -1.94981800      0.69946400     -1.61727800
H          -2.49413800     -1.44397000      0.54174200
H           1.20069600      0.70149600      0.77228400
H          -0.24085700      1.56270200     -0.04179800
H          -0.08112500     -1.34536100      0.99119200
