16
b3lypvdz=-309.46103127884 
C           1.46482700      0.80151300     -0.07968200
C           0.07947400      0.75303100      0.16364900
C          -0.59012200     -0.55714900      0.22693600
C          -1.90074700     -0.80177000      0.37116400
C           2.14566800      2.01877100     -0.15313700
C          -0.60228000      1.97556300      0.33646300
C           1.45371900      3.22046900      0.01599800
C           0.07514700      3.19069500      0.26393300
H           2.00923000     -0.13631000     -0.22181000
H           0.08554300     -1.41628900      0.13574000
H          -2.64205300     -0.00273600      0.45770900
H          -2.28113300     -1.82461400      0.40642800
H           3.22040300      2.02831900     -0.35124100
H          -1.67456400      1.97014700      0.54486700
H           1.98421300      4.17351600     -0.04488300
H          -0.47552600      4.12344400      0.40876600
