17
b3lypvdz=-326.639695819815 
N           0.04892500     -1.55697300      1.18215000
C           1.56094200      0.76832500     -0.06233800
C           0.24470500      0.67781100      0.16222800
C          -0.46250000     -0.59352400      0.48869200
C          -1.83589400     -0.79794100      0.00035300
C          -2.51031200     -0.00284800     -0.85952400
C          -3.86650200     -0.23209900     -1.36839900
C          -4.73457700     -1.17160200     -0.95622200
H           0.99426700     -1.29569300      1.49614200
H           2.20591400     -0.11642500     -0.04674800
H           2.03861500      1.72534400     -0.28384300
H          -0.36954800      1.58232400      0.09776400
H          -2.28681300     -1.71785700      0.38263900
H          -2.00895800      0.88561900     -1.25537100
H          -4.18167600      0.44688700     -2.16850600
H          -4.49773700     -1.86742400     -0.14687200
H          -5.71875000     -1.26702400     -1.41944500
