17
b3lypvdz=-326.639821864599 
N           0.05225800     -1.64496400      1.11382000
C           0.16215800      0.72461300      0.61948000
C          -0.53409900     -0.58411600      0.66861500
C          -1.93889500     -0.67829400      0.20781000
C          -0.36600100      1.92878100      0.35845500
C          -2.70785800     -1.75868700      0.45742800
C          -4.08857100     -1.98466000      0.02996000
C          -4.81414800     -1.23707500     -0.81937200
H           1.00850700     -1.41675500      1.41604200
H           1.22861900      0.66315300      0.86757300
H          -2.34388500      0.16918100     -0.34985100
H           0.25905900      2.82454300      0.37410800
H          -1.42359500      2.07413500      0.12716100
H          -2.24350900     -2.55644500      1.04552700
H          -4.55814500     -2.87775200      0.45628000
H          -4.41100500     -0.34171100     -1.30006400
H          -5.84039000     -1.51224600     -1.07157300
