9
b3lypvdz=-171.930500631678 
N          -0.02084300     -1.66117500      1.03846300
C           1.47327000      0.80371200     -0.04853100
C           0.17718300      0.70024100      0.27555900
C          -0.51587600     -0.57067800      0.59112400
H           0.99462200     -1.55029000      1.19469600
H           2.11782400     -0.07953900     -0.11102400
H           1.93309600      1.76683500     -0.28036500
H          -0.44983600      1.59935200      0.27913500
H          -1.60614100     -0.56505800      0.41674200
