12
b3lypvdz=-211.223149909049 
N           2.37171700     -0.32415300     -0.15243700
C           1.45502000      0.71879600     -0.15493800
C           0.10913000      0.63135900     -0.00507300
C          -0.64708600     -0.59830100      0.13296500
C          -1.97944800     -0.68299800      0.30624500
H           2.00315800     -1.24041900     -0.39064800
H           3.23357800     -0.13622900     -0.65476500
H           1.91974200      1.70619900     -0.23574600
H          -0.44759700      1.57184200      0.02770100
H          -0.08180200     -1.53935000      0.10306700
H          -2.60396100      0.21467900      0.35520400
H          -2.48265000     -1.64632500      0.41032300
