8
b3lypvdz=-242.123652349988 
N           2.28220000     -0.37148900     -0.35392200
N           3.19065600     -2.34351100      0.03137400
N           3.79398400     -1.80063100     -1.08415500
C           2.29576600     -1.47781000      0.45389500
C           3.24523600     -0.62467300     -1.29521000
H           1.69727200      0.45177400     -0.26924400
H           1.64676100     -1.59979100      1.31915200
H           3.49892400      0.06373100     -2.09939000
