12
b3lypvdz=-670.777074754498 
Cl         -0.80915000      4.75707600      0.78491100
N           2.27805400     -0.43187700     -0.35328700
C           1.67346100      0.74306800      0.04874500
C           2.05055400      1.99952100     -0.28994700
C           1.30521800      3.20734900      0.04550300
C          -0.01782500      3.27714300      0.26880100
H           2.21153300     -1.21436000      0.28920500
H           3.19758500     -0.34505900     -0.77695300
H           0.77925600      0.59132000      0.66347900
H           2.98976700      2.13951300     -0.83754300
H           1.88088500      4.13622200      0.12129000
H          -0.71814000      2.44948400      0.15159700
