14
b3lypvdz=-692.796215292055 
Cl         -0.63921100      4.51585400      1.10246400
C           0.06173600      0.66331500      0.46948500
C          -0.64227300     -0.61844600      0.48317200
C          -1.92041000     -0.83389300      0.12774500
C          -0.51655400      1.88455400      0.44340700
C           1.43148300      3.35691600     -0.16754700
C           0.22259700      3.14250700      0.37202800
H           1.15488500      0.60886300      0.51537400
H          -0.04242100     -1.47527500      0.80933300
H          -2.56266400     -0.03014900     -0.24234600
H          -2.36328100     -1.83004100      0.19163300
H          -1.60480000      1.97822500      0.50632000
H           1.94854000      2.53469500     -0.66540700
H           1.91377300      4.33327500     -0.13056000
