13
b3lypvdz=-249.286139881214 
N           0.06421700     -1.69016500      0.92335000
C           0.09145400      0.71326400      0.58649100
C          -0.57383600     -0.61230400      0.62122100
C          -2.02757300     -0.70809400      0.31471600
C          -0.47975300      1.90971500      0.38638400
C          -2.75889500     -1.78855900      0.61552900
H           1.04509400     -1.46678200      1.14199000
H           1.17247400      0.67157200      0.77116600
H          -2.49737300      0.14909800     -0.17480300
H           0.12236700      2.82157900      0.39652500
H          -1.55086100      2.03259700      0.20816800
H          -3.82191100     -1.84285300      0.36872700
H          -2.29440500     -2.64486700      1.11033500
