18
b3lypvdz=-310.592916522939 
C          -0.05360800      0.72200900      0.67170700
C          -0.64795000     -0.49762300      0.62584900
C          -1.91511900     -0.91999800      0.00935300
C          -0.53329100      1.99949100      0.16570700
C           0.17137900      3.14244200      0.25684900
C          -2.59658600     -0.07248000     -1.00251100
C          -2.42698800     -2.13243000      0.32716300
C          -3.91575500      0.15921200     -1.04973200
H           0.91544200      0.76918200      1.18243700
H          -0.11823400     -1.30835300      1.13783000
H          -1.52616000      2.02986700     -0.28714900
H          -0.22805900      4.08516300     -0.12365500
H           1.16629800      3.16665900      0.71264900
H          -1.94854100      0.37317600     -1.76589200
H          -3.33394300     -2.50741000     -0.15021400
H          -1.93698600     -2.77751100      1.06138600
H          -4.59050800     -0.23227600     -0.28276900
H          -4.35869200      0.75728100     -1.85050800
