18
b3lypvdz=-310.599512534233 
C           1.65813200      0.88392200      0.11573100
C           0.25031500      0.69385800     -0.16830000
C          -0.42293000     -0.46142400      0.07050400
C          -1.81670200     -0.74448000     -0.23184000
C           2.33339200      2.02202000     -0.13904200
C          -2.65251600      0.00581000     -0.99391400
C          -4.05111000     -0.28918200     -1.29851400
C          -4.81386800     -1.26971800     -0.77934300
H           2.18741200      0.03195100      0.56103900
H          -0.27637400      1.54972700     -0.60662800
H           0.13234700     -1.28090400      0.54196800
H          -2.20024700     -1.67975000      0.18956700
H           1.83471500      2.88857300     -0.58386600
H           3.39650400      2.12177900      0.09006700
H          -2.25606800      0.91288500     -1.46192300
H          -4.51085900      0.37677000     -2.03807400
H          -4.44087800     -1.96252100     -0.01959600
H          -5.84626100     -1.40801500     -1.10793500
