14
b3lypvdz=-692.805330915656 
Cl         -0.47878100      4.74511100      0.40966900
C           0.02402300      0.69525700      0.51522500
C          -0.63547300     -0.49239700      0.49571400
C          -2.07197600     -0.69854500      0.42624500
C          -0.56627100      2.01939200      0.45411300
C           0.18624400      3.13391200      0.48138700
C          -2.64863700     -1.91459300      0.42308300
H           1.11763100      0.66579100      0.58055800
H          -0.02902600     -1.40373200      0.54862500
H          -2.71402800      0.18750300      0.37552000
H          -1.65300200      2.12156200      0.38248500
H           1.27641600      3.12515600      0.55177100
H          -3.73296400     -2.03558500      0.37270200
H          -2.04665900     -2.82763200      0.47150300
