18
b3lypvdz=-310.593955137724 
C           1.51140900      0.83997700     -0.34907600
C           0.06639400      0.70545800     -0.28275400
C          -0.58958700     -0.47515200     -0.22699000
C          -2.05537500     -0.64045000     -0.16051100
C           2.15566800      2.02058600     -0.37157300
C          -2.89231300      0.24141800     -0.75249700
C          -2.52284800     -1.83235100      0.59043000
C          -3.78798200     -2.21965900      0.80648400
H           2.09041400     -0.09117900     -0.37891100
H          -0.51089700      1.63734000     -0.25134100
H           0.00226700     -1.39912300     -0.18730800
H           1.60468800      2.96597800     -0.34409000
H           3.24533900      2.08041400     -0.41815300
H          -3.97765800      0.15123500     -0.67076100
H          -2.50559700      1.07437500     -1.34177400
H          -1.72184900     -2.44477100      1.01968100
H          -4.64741200     -1.67104200      0.41185200
H          -4.00526300     -3.11735400      1.38959400
