14
b3lypvdz=-233.241669858123 
C           0.11394800      0.71091900      0.50368700
C          -0.67421200     -0.52394000      0.55827800
C          -1.85907600     -0.80012100     -0.04075500
C          -0.34630900      1.97420300      0.48532300
C          -2.60016100      0.03976600     -0.97041700
C          -3.82309600     -0.26643600     -1.44021600
H           1.20185800      0.56193900      0.53260700
H          -0.21956500     -1.33295000      1.14222800
H          -2.29954600     -1.78408800      0.15973500
H           0.34390900      2.82075000      0.45406900
H          -1.41383800      2.20366000      0.53208300
H          -2.11039300      0.95453000     -1.31772800
H          -4.34976100     -1.16807400     -1.11150600
H          -4.33685700      0.37774000     -2.15758800
