17
b3lypvdz=-326.635524010185 
N          -0.09425700     -1.57150000      1.13513500
C           1.48035000      0.73206000     -0.06421000
C           0.17469100      0.69288300      0.22814500
C          -0.57706600     -0.57282200      0.48493600
C          -1.98120000     -0.68062600     -0.03171100
C          -2.41529800      0.17108000     -0.98451400
C          -2.79771300     -1.77380900      0.54252200
C          -4.06392900     -2.08545000      0.23173400
H           0.86022500     -1.35408500      1.45206500
H           2.06956300     -0.18436200     -0.17507400
H           2.00087800      1.68057200     -0.21848700
H          -0.39670100      1.62474400      0.29488300
H          -3.42115300      0.10016700     -1.40453900
H          -1.77097800      0.94520900     -1.40322700
H          -2.27710900     -2.36618400      1.29766100
H          -4.64589000     -1.54606800     -0.52274800
H          -4.56941200     -2.90880900      0.74222700
