13
b3lypvdz=-249.28628976326 
N          -0.02940500     -1.59231000      1.12815600
C           1.51405400      0.75479000     -0.05368700
C           0.19959700      0.67415100      0.18343000
C          -0.52094900     -0.60159100      0.46619900
C          -1.90381100     -0.76341700     -0.03588700
C          -2.53003200      0.05261500     -0.89612400
H           0.92123700     -1.35835500      1.44931400
H           2.14477400     -0.13994300     -0.08427000
H           2.00370500      1.71335100     -0.24106400
H          -0.40586700      1.58699500      0.16787700
H          -2.39983100     -1.66231900      0.34177500
H          -3.54633100     -0.16103800     -1.23572200
H          -2.05184200      0.94467100     -1.30889700
