11
b3lypvdz=-227.268615165154 
N           2.20225000     -0.38021000     -0.25688400
N           3.87653700     -1.81131300     -1.19153200
C           1.61021800      0.87062000     -0.06411800
C           1.98889300      2.06563000     -0.54285500
C           3.34638900     -0.66678800     -0.98199600
H           1.73371100     -1.17155800      0.16979400
H           3.32528400     -2.55706500     -0.73797500
H           0.71909900      0.80383600      0.56709000
H           1.39561200      2.94126000     -0.27778600
H           2.85977400      2.22428100     -1.18112300
H           3.83043200      0.22090500     -1.41031500
