10
b3lypvdz=-615.44190341996 
Cl         -0.77727000      4.80114100      0.72082100
C           1.61668700      0.69638700     -0.15366400
C           2.03531500      1.96435200     -0.29972400
C           1.28970700      3.20064400     -0.02401700
C           0.02708500      3.27875500      0.41940500
H           2.27835300     -0.13726800     -0.39820100
H           0.61789000      0.44012800      0.21156300
H           3.05205800      2.12778200     -0.67289000
H           1.82689400      4.13606100     -0.20768700
H          -0.61071800      2.41951900      0.63269500
