13
b3lypvdz=-249.287289195827 
N          -0.12684800     -1.50413200      1.32642400
C          -0.56723000     -0.69846000      0.43696700
C          -1.97039900     -0.74995000     -0.04130200
C          -2.35612900      0.16377100     -0.95641700
C          -2.83036100     -1.80322700      0.53973900
C          -4.10526000     -2.06576600      0.22192200
H           0.86166600     -1.30946300      1.52873600
H           0.04833600      0.08930600     -0.03934500
H          -3.37200200      0.20489000     -1.35349400
H          -1.64882600      0.90625100     -1.33479500
H          -2.32800300     -2.40807200      1.29898200
H          -4.65924900     -1.50031900     -0.53367000
H          -4.64709600     -2.87122900      0.72335500
