10
b3lypvdz=-615.448089379074 
Cl         -0.70931800      4.63691500      0.78219100
C           0.09872800      0.64952900      0.34459300
C          -0.46904600     -0.55484400      0.52647800
C          -0.56025800      1.91888800      0.61910800
C           0.05133600      3.10032400      0.44507500
H           1.12647700      0.70306900     -0.03260000
H           0.07730400     -1.47474700      0.30726600
H          -1.49201900     -0.65661700      0.90088300
H          -1.58981000      1.89483700      0.98995000
H           1.07400500      3.20314600      0.07675600
