14
b3lypvdz=-233.248067000793 
C           1.57279900      0.78086200      0.27333000
C           0.29067600      0.62872000     -0.10756700
C          -0.51553800     -0.53490800      0.21763900
C          -1.80086000     -0.76544900     -0.15576600
C          -2.64925200      0.10326100     -0.95544500
C          -3.92193600     -0.18810100     -1.28025500
H           2.08661200      0.01349000      0.86146800
H           2.14685200      1.67008600      0.00416200
H          -0.17879200      1.42352100     -0.69697900
H          -0.01763900     -1.30509700      0.81784300
H          -2.26349900     -1.70088400      0.17876200
H          -2.22093300      1.04497000     -1.31355300
H          -4.39299000     -1.11727400     -0.94415300
H          -4.53020100      0.49180400     -1.88058600
