16
b3lypvdz=-288.556062473517 
N          -0.01440600     -1.60023300      1.10765700
C           1.62259800      0.82107600     -0.09611900
C           0.34584200      0.78548300      0.33578300
C          -0.38190900     -0.49967900      0.57604700
C           1.32373000     -1.79431600      1.64061900
C          -0.49119100      1.99411100      0.53786800
C          -0.12255800      3.27593700      0.40245500
H           2.18416200     -0.09248500     -0.29172100
H           2.13070600      1.76385400     -0.31209000
H          -1.43601300     -0.46922500      0.24551200
H           1.93434100     -2.33642000      0.89500100
H           1.25390400     -2.45118400      2.52239000
H           1.86353700     -0.86844200      1.91273100
H          -1.52386600      1.78793000      0.84249100
H          -0.83640500      4.08233900      0.58446300
H           0.88822900      3.57235400      0.10841200
