6
b3lypvdz=-538.090713413008 
Cl         -0.76795900      4.62444500      0.80753400
C          -0.51000000      1.92025200      0.60881700
C           0.04401600      3.11675400      0.43436100
H           0.05952200      1.02297100      0.35510900
H          -1.52272500      1.80092500      0.99964400
H           1.05054700      3.26965200      0.03973400
