10
b3lypvdz=-615.441513457563 
Cl         -0.86605600      4.50729400      0.71389000
C           0.13449100      0.61821200      0.48490000
C          -0.43309500      1.82265300      0.64222800
C           1.38299300      3.36012600     -0.21526400
C           0.17764600      3.12759700      0.31927700
H           1.14476600      0.48226100      0.08830500
H          -0.41456700     -0.28555000      0.75883400
H          -1.44561700      1.87701000      1.04981300
H           2.04452200      2.52865400     -0.46849000
H           1.73481800      4.37194200     -0.41749400
