16
b3lypvdz=-288.581387350331 
N           2.30684100     -0.38719300      0.03188500
C           1.54907600      0.78244100     -0.14433100
C           0.10032100      0.64886200      0.02634300
C          -0.56459500     -0.51963500      0.17885100
C          -1.99952400     -0.62145400      0.37786700
C           2.08644200      1.96797900     -0.52222200
C          -2.66427200     -1.78451800      0.49932200
H           2.02324900     -0.92321100      0.85095600
H           3.30823200     -0.21076200      0.07020600
H          -0.46215100      1.58821700      0.01839000
H          -0.01058700     -1.46449800      0.13792000
H          -2.55399100      0.32391800      0.42670000
H           1.44019600      2.81442300     -0.75510000
H           3.16340800      2.09758200     -0.65446800
H          -3.74521800     -1.81493600      0.65192700
H          -2.13872800     -2.74381600      0.45575300
