16
b3lypvdz=-288.57350114902 
N           0.05830800     -1.77924700      1.18821300
C          -0.46080800     -0.94008200      0.37311500
C           1.47689600     -1.66121300      1.45170000
C          -1.87890700     -0.97026700      0.04445500
C          -2.44722300     -0.07508400     -0.79543800
C          -3.85298500     -0.00505600     -1.19821700
C          -4.85253400     -0.80837600     -0.79378700
H           0.14498200     -0.15052000     -0.12253800
H           1.97497800     -2.61475800      1.19829200
H           1.63984600     -1.50646400      2.53333100
H           1.97991000     -0.84521400      0.89322500
H          -2.45874700     -1.76421600      0.52477000
H          -1.79337700      0.68726100     -1.23545700
H          -4.09299300      0.79470100     -1.90743000
H          -4.69417200     -1.62673900     -0.08564100
H          -5.86807500     -0.66612400     -1.16959300
