15
b3lypvdz=-304.606654778078 
N           0.06639000     -1.53307400      0.98027000
N           3.36658200     -2.46828200      0.48117300
C          -0.71611400     -0.53030000      0.87090700
C           2.38869400     -1.68434200      0.26516500
C           1.44117200     -1.28628500      1.37916700
C          -2.13105300     -0.66603000      0.47712300
C          -2.73798300     -1.84593000      0.28199800
H           3.90517900     -2.60905800     -0.38568600
H          -0.36460400      0.50317100      1.07678100
H           2.14818600     -1.23237800     -0.71896500
H           1.68903300     -1.90405300      2.25636300
H           1.62417000     -0.21692100      1.63176300
H          -2.68683500      0.26902900      0.35135800
H          -3.78883900     -1.90435500     -0.01041200
H          -2.18088000     -2.77739200      0.41109500
