18
b3lypvdz=-310.594626911803 
C           1.43428100      0.86688900     -0.08767600
C          -0.04606000      0.95538400     -0.05294500
C          -0.74250400     -0.34011200      0.05720500
C          -2.04786600     -0.55174300      0.33714900
C           2.29431200      1.78020600      0.38302400
C          -0.68286700      2.14399600     -0.15205800
C          -2.64572400     -1.87127600      0.42906900
C          -3.94243800     -2.10349100      0.70050700
H           1.83823800     -0.05390800     -0.52714700
H          -0.10756600     -1.22272000     -0.08788400
H          -2.71288100      0.30037900      0.52026800
H           1.94999300      2.69214500      0.87878100
H           3.37371600      1.63281500      0.29306300
H          -0.12238800      3.07193100     -0.27576400
H          -1.77251100      2.21955000     -0.13819400
H          -1.97416400     -2.72213600      0.26070200
H          -4.64405700     -1.28169300      0.87297900
H          -4.34151300     -3.11831700      0.75982100
