13
b3lypvdz=-249.284508520986 
N           0.10209800     -1.55482100      1.04747100
C           1.48118400      0.85856200     -0.14023400
C           0.05909500      0.81454400      0.26654200
C          -0.49630400     -0.45135000      0.81011800
C           2.30591300      1.88903600      0.08964700
C          -0.75786200      1.88108300      0.15016100
H           1.10396500     -1.47980100      0.81121400
H           1.87339800     -0.02550400     -0.65769200
H          -1.57508000     -0.41140100      1.04051300
H           1.97247000      2.77253400      0.64213300
H           3.33885900      1.87967200     -0.26693900
H          -0.41308600      2.82133600     -0.28431300
H          -1.79725100      1.83040900      0.48577900
