18
b3lypvdz=-310.590397405794 
C           0.05005600      0.66182000      0.49490600
C          -0.62491300     -0.49157100      0.27439800
C          -2.03251000     -0.65569500     -0.14832700
C          -0.48527700      2.01552500      0.46261300
C           0.26748800      3.12503700      0.56376600
C          -2.58116400      0.11498700     -1.11356400
C          -2.76230400     -1.75517800      0.53526100
C          -4.02920500     -2.14587500      0.33543900
H           1.10673000      0.57772000      0.77516500
H          -0.08467800     -1.42815800      0.46060100
H          -1.57145900      2.11496000      0.37085500
H          -0.18643800      4.11856000      0.56414400
H           1.35843400      3.07320300      0.64450800
H          -3.61990100     -0.00712900     -1.42816600
H          -1.98911800      0.86451800     -1.63985700
H          -2.17650400     -2.28953300      1.29191100
H          -4.68517000     -1.66990100     -0.39890300
H          -4.45676700     -2.96819100      0.91365200
