14
b3lypvdz=-233.234763735142 
C           0.10899700      0.62047500      0.48363800
C          -0.58357200     -0.52313000      0.39883000
C          -1.96766700     -0.65808200     -0.11528100
C          -2.40789700      0.10197700     -1.13942600
C          -2.79400600     -1.67961900      0.57500300
C          -4.04936700     -2.05126100      0.28590800
H           1.13224100      0.63531800      0.86604300
H          -0.32987400      1.57727400      0.18705500
H          -0.12066800     -1.44746300      0.76667300
H          -3.43350500      0.04017700     -1.50873100
H          -1.73667800      0.79651600     -1.64712100
H          -2.29956300     -2.16905900      1.42195800
H          -4.61535000     -1.61855600     -0.54360900
H          -4.55869000     -2.80916600      0.88556100
