17
b3lypvdz=-326.639323202346 
N          -0.00020300     -1.64332000      1.02842400
C           1.41858800      0.84593700      0.02924400
C           0.09036600      0.67631000      0.19006200
C          -0.55385200     -0.64011100      0.43230100
C          -1.94759200     -0.84958000     -0.02593600
C           2.14022100      2.10594600     -0.18088800
C           1.62162300      3.34157500     -0.28235100
C          -2.67023300     -0.02621800     -0.79872700
H           0.94834800     -1.38887900      1.33871100
H           2.04952800     -0.05099900      0.04568000
H          -0.57393000      1.54498100      0.14134400
H          -2.36821500     -1.79944700      0.31674200
H           3.22755300      1.99918800     -0.26671500
H           0.54744100      3.53824100     -0.21726500
H           2.27060300      4.20578800     -0.43931200
H          -3.68887900     -0.28638300     -1.09636300
H          -2.27636900      0.92087100     -1.17665000
