17
b3lypvdz=-326.638831518002 
N           0.10110100     -1.68927500      1.00300500
C           1.54250000      0.82481400      0.10248500
C           0.21931300      0.64947100      0.19880000
C          -0.45782100     -0.65361900      0.47925400
C          -1.89607900     -0.70569800      0.12403000
C          -2.71345000     -1.71986000      0.47616300
C          -4.13586600     -1.83579000      0.14316700
C          -4.75784500     -1.25532300     -0.89832700
H           1.07966700     -1.48342600      1.24468000
H           2.24585100     -0.00715500      0.21227300
H           1.97174900      1.80775700     -0.10439500
H          -0.44346800      1.50797800      0.04160300
H          -2.29395100      0.15210000     -0.42837500
H          -2.27608900     -2.51937700      1.08410500
H          -4.72386200     -2.48032000      0.80731600
H          -4.21679200     -0.64647700     -1.62834800
H          -5.82875700     -1.39490000     -1.06583600
