18
b3lypvdz=-310.599051324405 
C           1.49405800      0.87753500      0.09681500
C           0.11425900      0.56641700     -0.23491100
C          -0.52679000     -0.55510600      0.17116700
C          -1.91396600     -0.91809700     -0.13411900
C           2.12928000      1.99963700     -0.28895400
C          -2.67103600     -0.08530000     -1.10093000
C          -2.46944800     -2.00968300      0.44233500
C          -3.96932100      0.23164700     -1.00572000
H           2.03079600      0.13728200      0.70369200
H          -0.41729300      1.30867600     -0.84122100
H           0.02260600     -1.27148200      0.79433500
H           1.62134200      2.75936000     -0.89118100
H           3.16587500      2.19706500     -0.00828000
H          -2.10050400      0.29745900     -1.95497600
H          -3.47994300     -2.33607400      0.19066000
H          -1.90922200     -2.61266800      1.16194900
H          -4.57839000     -0.08354100     -0.15341800
H          -4.46200400      0.82707500     -1.77864400
