9
b3lypvdz=-171.935959009211 
C          -2.45348900      0.04207900     -0.92172300
N          -0.06736700     -1.54289500      1.28603200
C          -1.91924200     -0.80952700     -0.03365300
C          -0.53646600     -0.70194800      0.44176800
H          -3.48462700     -0.05928100     -1.26814500
H          -1.87015500      0.87097500     -1.33593300
H           0.91104000     -1.31225300      1.50673400
H          -2.49874100     -1.63797000      0.38688200
H           0.04184800      0.14341900      0.01613600
