16
b3lypvdz=-288.566611866552 
N          -0.07677400     -1.67064200      1.28950400
C           0.18829900      0.73691100      0.72883000
C          -0.53375300     -0.51256100      0.98244000
C           1.36308700     -1.85394500      1.43025600
C          -0.47996300      1.86647200      0.39899600
C           1.38583000      3.48839100     -0.06185000
C           0.08656000      3.18295400      0.10297200
H           1.27701900      0.74174500      0.82580300
H          -1.63105600     -0.43627800      0.89001500
H           1.84836200     -1.93492800      0.44024900
H           1.55765100     -2.79564500      1.96609800
H           1.86516400     -1.04172800      1.98946000
H          -1.57414300      1.80595200      0.34662300
H           2.17675800      2.73532400     -0.00416400
H           1.69721500      4.51220800     -0.27945800
H          -0.64705700      3.99007000     -0.00117400
