17
b3lypvdz=-326.633469488959 
N           0.05451500     -1.73181500      0.97367700
C           1.55077900      0.62721600     -0.11754600
C           0.30284200      0.65218400      0.38848200
C          -0.46443300     -0.63211900      0.55767500
C          -1.91481600     -0.59352500      0.22187500
C          -0.36653000      1.90069900      0.81472600
C          -0.18482000      3.11195000      0.26966300
C          -2.77562100     -1.55234800      0.58761300
H           1.04361800     -1.58315000      1.21283800
H           1.99559200     -0.30686800     -0.46828100
H           2.15495200      1.53320800     -0.19577900
H          -2.26735800      0.27517700     -0.34217800
H          -1.07493500      1.79673300      1.64563300
H          -0.69886200      3.99034700      0.66675500
H           0.47120600      3.26447400     -0.59215500
H          -3.83134400     -1.50115900      0.31060900
H          -2.42458500     -2.41110500      1.16529500
