12
b3lypvdz=-211.221991261245 
N           2.27264700     -0.38816600     -0.28099700
C           1.55642000      0.80104100     -0.07425400
C           0.16907900      0.64195600      0.39687000
C          -0.50295800     -0.51622900      0.47370300
C           2.04386100      2.03232800     -0.35279300
H           2.15310400     -1.06636300      0.46949300
H           3.26202300     -0.24242200     -0.46570300
H          -0.32245000      1.57218700      0.69837200
H          -0.06609400     -1.46210500      0.14410100
H          -1.52932600     -0.54871000      0.84633300
H           1.40136300      2.90955200     -0.27034500
H           3.06583100      2.17993000     -0.70977900
