14
b3lypvdz=-233.245220834506 
C           1.60792500      0.84233700     -0.02603300
C           0.16846500      0.66664000     -0.10409000
C          -0.46546900     -0.51670100      0.07018800
C          -1.90897100     -0.73377000     -0.04642900
C           2.23432800      2.02103100     -0.19477400
C          -2.75186800     -0.01932700     -0.81189400
H           2.20021200     -0.05770100      0.18053900
H          -0.42460200      1.56616600     -0.30849600
H           0.13660600     -1.39259000      0.34139000
H          -2.31379200     -1.57615400      0.52814200
H           1.67180800      2.93605400     -0.40367100
H           3.32128400      2.10826000     -0.13137400
H          -3.82202100     -0.24094800     -0.83098200
H          -2.39730400      0.79150300     -1.45541400
