14
b3lypvdz=-266.563743690623 
N           2.50082600     -0.23381000     -0.15279100
N           3.02141700     -2.53199400      0.08648700
C           1.82324300      0.93710600      0.16429500
C           2.31661400     -1.50307600      0.39130200
C           1.20392000     -1.65175200      1.39844000
C           2.04068100      2.13943600     -0.39265200
H           3.25567200     -0.15325800     -0.82808200
H           3.74501100     -2.28936400     -0.60639900
H           1.06376800      0.81920100      0.93972200
H           0.23421800     -1.34920000      0.96911800
H           1.15572300     -2.70315300      1.70422000
H           1.38832900     -1.03295200      2.29309800
H           1.45781900      3.00045200     -0.06718700
H           2.79375800      2.29496500     -1.17047100
