13
b3lypvdz=-708.83696450184 
Cl         -0.98258300      4.64649600      0.55540700
N          -0.12427100     -1.71203700      0.67369000
C           1.63273400      0.70685900      0.18451700
C           0.32354900      0.74597000      0.50258300
C          -0.50638500     -0.49886100      0.57962600
C          -0.40233400      2.00087300      0.78179900
C          -0.13120300      3.16740300      0.18285800
H           0.90645000     -1.76194500      0.71701800
H           2.12786100     -0.23012200     -0.08231500
H           2.25008500      1.60713700      0.18243600
H          -1.59658600     -0.32552300      0.55415800
H          -1.23139500      1.95456700      1.49587100
H           0.62677800      3.29168300     -0.59324800
