14
b3lypvdz=-233.239593508648 
C          -0.03147900      0.69554700      0.33804900
C          -0.69047300     -0.42640800      0.66838100
C          -1.92995000     -0.91272800      0.03859200
C          -2.43496500     -0.21196700     -1.16723600
C          -2.57125800     -1.98743000      0.54678600
C          -3.71158000      0.13304600     -1.37956400
H           0.88271100      0.98522100      0.86141800
H          -0.37897200      1.36221400     -0.45525900
H          -0.30197600     -1.04860900      1.48313800
H          -1.68422700      0.04319400     -1.92519100
H          -3.46956200     -2.39060400      0.07530800
H          -2.20265200     -2.49006900      1.44515400
H          -4.48544500     -0.05460700     -0.62938800
H          -4.02047100      0.62270000     -2.30668700
