14
b3lypvdz=-692.796653833166 
Cl         -0.90681200      4.61996000      0.69885000
C           1.59154000      0.63854200      0.18561700
C           0.24827500      0.68635100      0.33032900
C          -0.55325800     -0.53699300      0.15428800
C          -1.89299300     -0.61355300      0.14692200
C          -0.44880200      1.94057500      0.69116800
C          -0.11289600      3.14021500      0.20388600
H           2.09123900     -0.28990900     -0.10275400
H           2.22001200      1.51345200      0.36200900
H           0.02971500     -1.45383500      0.01140100
H          -2.53104600      0.26625600      0.26451000
H          -2.39750700     -1.57253000      0.00779700
H          -1.28918700      1.87254000      1.38908300
H           0.66892100      3.30372900     -0.54020400
