15
b3lypvdz=-304.625113537436 
N           2.50993500     -0.26087100     -0.42188000
N           3.02547100     -2.60220500     -0.32538200
C           1.79769900      0.82817800      0.05676200
C           2.39915800     -1.55695300      0.05608600
C           1.95249500      2.10416400     -0.36017800
C           1.18309800      3.25104800      0.12388400
C          -0.01887100      3.23758600      0.72691500
H           3.18264200     -0.09597200     -1.16629100
H           3.68452000     -2.37905200     -1.08733300
H           1.07697400      0.57291200      0.83957300
H           1.65911600     -1.64791500      0.86665700
H           2.73257200      2.32053200     -1.09976600
H           1.66207400      4.22384900     -0.04134800
H          -0.47909600      4.16182000      1.08318200
H          -0.58678800      2.31507800      0.88101800
