12
b3lypvdz=-211.219469795593 
N           2.29641100     -0.43710000     -0.34805400
C           1.66974700      0.73465300      0.03522900
C           2.04982700      1.99269200     -0.29021700
C           1.28878900      3.19893400      0.02015600
C          -0.02712900      3.29965400      0.28255400
H           2.22683600     -1.21577800      0.29938200
H           3.22947100     -0.33777800     -0.73893400
H           0.75508700      0.57592700      0.61702100
H           3.00580800      2.12946600     -0.80957500
H           1.88037800      4.12339400      0.03780400
H          -0.47421100      4.25725000      0.55820800
H          -0.69991300      2.43808400      0.23222600
