16
b3lypvdz=-288.562197740752 
N           0.00760800     -1.66100600      1.12409600
C           0.10004500      0.71696900      0.54111600
C          -0.57164800     -0.59918600      0.68002600
C           1.39092300     -1.62851700      1.56741000
C          -2.00535100     -0.70948100      0.28626600
C          -0.50964200      1.90583800      0.41390200
C          -2.77166900     -1.76892300      0.57408300
H           1.19334200      0.69870300      0.56894300
H           2.09083000     -1.48842000      0.72145000
H           1.63650600     -2.59329000      2.03660700
H           1.60061500     -0.83012900      2.30315700
H          -2.42699200      0.12864900     -0.27543600
H           0.07086600      2.82831900      0.33614300
H          -1.59799600      2.00909500      0.40236800
H          -3.81272200     -1.82288200      0.24799400
H          -2.35311400     -2.60923900      1.13317500
