8
b3lypvdz=-133.8660562133 
N           2.28731800     -0.34690000     -0.34932100
C           1.46906100      0.74974400     -0.08149100
C           0.19098700      0.71918400      0.33092200
H           1.97064500     -1.22070200      0.06505300
H           3.27475000     -0.19414400     -0.16480800
H           1.94774700      1.70992400     -0.30758700
H          -0.31766200     -0.22137000      0.56642900
H          -0.38054500      1.64246400      0.42790200
