15
b3lypvdz=-304.617454416423 
N           2.01512700     -0.33653300     -0.76501000
N           0.24844600     -1.51606900      1.40210400
C           1.52783700      0.83140500     -0.14657800
C           0.11594200      0.74789900      0.33211300
C          -0.36119300     -0.43504500      1.10339900
C           2.28261100      1.92355300      0.09282200
C          -0.74891000      1.75107800      0.08435400
H           1.36129600     -0.75873300     -1.42221400
H           2.92614800     -0.21438900     -1.20326800
H           1.19705900     -1.50266200      0.99648100
H          -1.39860900     -0.32711200      1.46723900
H           1.89535000      2.73668800      0.70576300
H           3.30597100      2.00462600     -0.28420500
H          -0.45105100      2.62005000     -0.50541300
H          -1.76932300      1.72154600      0.47661200
