13
b3lypvdz=-249.282068402277 
N           0.00155500     -1.44830900      1.33173300
C          -0.58782400     -0.72011200      0.46422300
C          -2.01517600     -0.93192400      0.08033200
C          -2.52506800     -0.05115000     -0.99282100
C          -2.73484800     -1.87585600      0.71909100
C          -3.74931900     -0.04603100     -1.53961400
H           0.97123800     -1.13345400      1.46131100
H          -0.09143300      0.11770000     -0.06468700
H          -1.79622200      0.67537100     -1.37309000
H          -3.78151500     -2.07479900      0.48210500
H          -2.25556300     -2.47138400      1.49801400
H          -4.53611700     -0.73798300     -1.22696700
H          -4.00600800      0.66263400     -2.32992900
