17
b3lypvdz=-326.637880873758 
N          -0.00434800     -1.64220300      0.99375100
C           0.10898100      0.68092700      0.29361300
C          -0.58678400     -0.61420900      0.46984800
C          -2.00052900     -0.82215300      0.06793300
C          -0.45389100      1.90819200      0.32541700
C           1.57370300      3.39111500      0.14072500
C           0.24943200      3.19464900      0.24843200
C          -2.70494400     -0.12179200     -0.83162200
H           0.97424500     -1.41196300      1.22079200
H           1.20037800      0.59627800      0.21437200
H          -2.44022300     -1.70653300      0.53914900
H          -1.53915400      1.97492600      0.44468100
H           2.28802900      2.56378600      0.10057500
H           1.99070500      4.39904300      0.08734400
H          -0.39957300      4.07656700      0.28783100
H          -3.72541400     -0.41604700     -1.08944900
H          -2.28531300      0.73491800     -1.36329000
