10
b3lypvdz=-155.891385848791 
C          -1.89839700     -0.71859500      0.22358300
C           1.48583800      0.78935900      0.04721800
C           0.14854500      0.66935700      0.05344700
C          -0.56155700     -0.59473400      0.21449500
H          -2.55025000      0.15294000      0.10447900
H          -2.38443700     -1.68847800      0.35118000
H           2.13406900     -0.08452000      0.16884000
H           1.97590100      1.75712500     -0.08112000
H          -0.47526100      1.56356900     -0.07092100
H           0.06414900     -1.48792200      0.33749800
