14
b3lypvdz=-692.79889161685 
Cl         -0.49008100      4.71448200      0.75801300
C           0.11990100      0.69057600      0.43390800
C          -0.48786100     -0.50313600      0.21763200
C          -1.89341400     -0.77468900     -0.09406500
C          -0.50704400      1.99918800      0.50188200
C           0.21839000      3.12345300      0.63150600
C          -2.69828700     -0.04927300     -0.88955900
H           1.19917000      0.67247400      0.62383800
H           0.14346800     -1.39457000      0.31280100
H          -2.29441500     -1.70162900      0.33619800
H          -1.59777300      2.06364600      0.46662700
H           1.31001200      3.14114300      0.66758500
H          -3.73200900     -0.35546400     -1.06995800
H          -2.34335700      0.84489900     -1.40900900
