17
b3lypvdz=-326.639320709272 
N           0.04460100     -1.75530800      0.73223000
C           0.07922500      0.64378000      0.37758700
C          -0.60004700     -0.65919100      0.50711300
C          -2.08486800     -0.73197600      0.39099500
C          -0.50483300      1.85362300      0.22657500
C           1.49731800      3.38047800      0.21367100
C           0.17681900      3.14773100      0.12132600
C          -2.79018800     -1.79263700      0.80221900
H           1.05140400     -1.55754100      0.81740900
H           1.17407600      0.58325300      0.42898800
H          -2.59906800      0.12353600     -0.05498300
H          -1.59695900      1.90186500      0.17472200
H           2.22304000      2.58143200      0.38906500
H           1.89881500      4.39130300      0.11532000
H          -0.48463100      4.00383700     -0.05055900
H          -3.87683700     -1.83011800      0.69432100
H          -2.27996900     -2.64806700      1.25060100
