15
b3lypvdz=-304.628890829075 
N           2.17499000     -0.60375100     -0.51971300
N           4.36346000     -1.52034600     -0.87944900
C           1.34116200      0.50429800     -0.52331600
C           0.02740900      0.54152300     -0.19375700
C          -0.78575700     -0.57182000      0.25592800
C          -2.08923500     -0.49220700      0.58356100
C           3.52680400     -0.55865400     -0.82486100
H           1.77981900     -1.51442900     -0.30689300
H           3.90941100     -2.41986100     -0.65916400
H           1.85099800      1.41925900     -0.83493300
H          -0.46387000      1.51472600     -0.27488300
H          -0.29893800     -1.55127100      0.35051500
H          -2.63509300      0.45429300      0.51846000
H          -2.64461600     -1.36727100      0.92581400
H           3.87635600      0.46401000     -1.03780900
