16
b3lypvdz=-288.572809547323 
N           2.28577200     -0.48869800     -0.35615000
C           1.55769900      0.62015600      0.02890400
C           0.21433900      0.66847300      0.27858400
C          -0.60352600     -0.54594700      0.21456100
C          -1.94782100     -0.60608800      0.21926400
C          -0.41235600      1.94103900      0.67570800
C          -0.09339400      3.16983600      0.23599000
H           1.80001700     -1.20873300     -0.87945700
H           3.22165100     -0.31219700     -0.69983700
H           2.16087600      1.51587700      0.20345100
H          -0.05311200     -1.49481800      0.18901400
H          -2.56942500      0.29315100      0.23065500
H          -2.46624300     -1.56771500      0.20685900
H          -1.22065000      1.85015300      1.41325200
H          -0.58321600      4.05628800      0.64637500
H           0.65818800      3.33292300     -0.54277300
