16
b3lypvdz=-288.557186254425 
N           0.05430100     -1.49498800      1.39946100
C           1.45395500      0.93790200     -0.15929400
C           0.06735800      0.82783600      0.35610500
C          -0.48088100     -0.42340500      0.95897700
C           1.48955900     -1.71319900      1.45029100
C           2.22843000      2.02371800     -0.02293300
C          -0.78761900      1.86586600      0.23040400
H           1.84473000      0.07225800     -0.70511600
H          -1.58153600     -0.39449900      1.03516000
H           1.78760700     -2.37304900      0.61474600
H           1.71732800     -2.27205300      2.37351200
H           2.11683200     -0.80690900      1.42291500
H           1.89450700      2.89164100      0.55300000
H           3.22258500      2.07167700     -0.47322800
H          -0.48440400      2.79494800     -0.25600300
H          -1.81165200      1.80335600      0.60820300
