13
b3lypvdz=-249.286268795827 
N          -0.01070200     -1.45808500      1.49092600
C          -0.45906100     -0.68364700      0.57266800
C          -1.83348500     -0.78802100      0.05755100
C          -2.70405100     -1.73622800      0.46981900
C          -4.08069400     -1.93100300      0.01530700
C          -4.75778000     -1.17616200     -0.86802600
H           0.96816000     -1.22846900      1.70213400
H           0.15063800      0.11031700      0.09968100
H          -2.12284800     -0.05378800     -0.70041500
H          -2.33298600     -2.44093300      1.22117500
H          -4.59631200     -2.78907700      0.45989800
H          -4.31319800     -0.29881900     -1.34592900
H          -5.78568000     -1.41988600     -1.14518700
