5
b3lypvdz=-94.574556817478 
N          -0.03670900     -1.64294700      1.11172700
C          -0.51595200     -0.60846900      0.55086000
H           0.93314700     -1.46067600      1.41279900
H           0.02086400      0.34725200      0.39277900
H          -1.54955000     -0.64845900      0.16863500
