10
b3lypvdz=-155.885463643352 
C          -2.71510900     -1.93285900      0.65749800
C          -3.90211600     -0.04662400     -1.48956600
C          -3.98537000     -1.85789100      0.23481700
C          -4.44626600     -1.15838800     -0.97487300
H          -1.89854100     -1.48328200      0.08480600
H          -2.44662700     -2.44944900      1.58200400
H          -3.05970100      0.45363800     -1.00248900
H          -4.28919000      0.40878600     -2.40418400
H          -4.76566200     -2.37266300      0.80846100
H          -5.32481800     -1.59506900     -1.46547400
