17
b3lypvdz=-326.632733817269 
N           0.16485900     -1.64591900      0.93716600
C          -0.01388200      0.74845400      0.59058600
C          -0.53406400     -0.64299400      0.53450800
C          -1.92880000     -0.92226800      0.04082300
C          -0.72074000      1.88328600      0.48988700
C          -2.43951600     -0.18740200     -1.13769100
C          -2.63457800     -1.89186100      0.65373600
C          -3.72722500      0.09440200     -1.38746800
H           1.07421600     -1.31189700      1.29093900
H           1.06309700      0.81268100      0.79189000
H          -0.22671000      2.85284800      0.59670900
H          -1.79689000      1.88793100      0.30475500
H          -1.68288800      0.14548100     -1.85771900
H          -3.61773400     -2.19922100      0.28947900
H          -2.21959200     -2.41593100      1.51604200
H          -4.51992900     -0.16491000     -0.67951500
H          -4.02672300      0.59742000     -2.30993000
