15
b3lypvdz=-325.506754195893 
N          -0.01796900     -1.73425800      0.80137100
C           1.52980200      0.81363100      0.04647200
C           0.17975500      0.73369900      0.43412000
C          -0.49513600     -0.55128300      0.74086800
C           2.11986800      2.04772500     -0.21985700
C          -0.55928600      1.92360500      0.54027100
C           1.37284600      3.22730500     -0.10307900
C           0.03010000      3.16253900      0.27904900
H           0.99262100     -1.73224600      0.59067200
H           2.12222900     -0.09963000     -0.05526500
H          -1.57283800     -0.44852000      0.96035900
H           3.16625100      2.09366300     -0.53006700
H          -1.60809300      1.86952600      0.84509300
H           1.83916500      4.19156300     -0.31839100
H          -0.56011600      4.07657900      0.37608400
