14
b3lypvdz=-233.238952991525 
C           0.23708400      0.66961900      0.36911400
C          -0.45638700     -0.47439700      0.50530700
C          -1.82953200     -0.72018700      0.05530000
C          -2.46249300     -0.06219000     -0.94234100
C          -3.83299000     -0.28101000     -1.41597400
C          -4.72897600     -1.17555000     -0.96112600
H           1.26669400      0.74665400      0.72719900
H          -0.20022700      1.56384100     -0.08472400
H           0.02586000     -1.31562600      1.01885400
H          -2.35380900     -1.52542900      0.58354300
H          -1.90499000      0.70300100     -1.49385300
H          -4.13455600      0.36149000     -2.25140600
H          -4.51508400     -1.85622500     -0.13174400
H          -5.71839400     -1.25199100     -1.41824900
