12
b3lypvdz=-211.212452181797 
N          -0.01331900     -1.63841600      1.13015100
C           0.11943900      0.81166700      0.72850000
C          -0.52630700     -0.50652700      0.82378300
C           1.40680000     -1.71558000      1.45778800
C          -0.57064000      1.91139800      0.38909700
H           1.18880900      0.88717500      0.94156200
H          -1.60386700     -0.51089600      0.58545400
H           2.02025000     -1.70009000      0.53871100
H           1.60690000     -2.66970900      1.96891300
H           1.75939000     -0.90063700      2.11697900
H          -0.08892900      2.88886600      0.30989000
H          -1.64222600      1.86305000      0.16957300
