15
b3lypvdz=-304.623314159464 
N           2.23236500     -0.41237200     -0.23684700
N           3.95454400     -1.74390300     -1.23779200
C           1.52006400      0.79183900     -0.10422800
C           0.13734000      0.66681600      0.38736500
C          -0.56884300     -0.46910000      0.49029200
C           2.03669800      2.00296100     -0.40958000
C           3.25082200     -0.68189500     -1.13876600
H           1.95320600     -1.17451600      0.37248300
H           3.70169700     -2.42288900     -0.50253600
H          -0.32484900      1.61095300      0.69136600
H          -0.17575200     -1.43750500      0.16970400
H          -1.58809000     -0.46106600      0.88168000
H           1.40311100      2.88903300     -0.35637900
H           3.06613000      2.13491400     -0.74242900
H           3.42585600      0.13593200     -1.85233500
