15
b3lypvdz=-304.619837482849 
N           2.32919100     -0.22115100     -0.29034200
N           3.05325400     -2.50063500     -0.10832800
C           1.46364000      0.82647600      0.07346900
C           0.22598900      0.62223100      0.57540700
C           2.33641000     -1.50242000      0.24054400
C           2.05068700      2.17531700     -0.09349900
C           1.37224500      3.29031000     -0.39526700
H           3.05780900     -0.00275200     -0.96286300
H           3.64491600     -2.26036000     -0.91941000
H          -0.22684500     -0.36868800      0.63058500
H          -0.34476300      1.46391400      0.96576600
H           1.64048600     -1.61939000      1.08391200
H           3.13742100      2.23623700      0.05056700
H           0.29569800      3.27240200     -0.58823800
H           1.87986400      4.25560900     -0.46240300
