14
b3lypvdz=-233.25122462653 
C           1.48376400      0.78643400      0.14849700
C           0.15457500      0.66002100     -0.02221400
C          -0.61594600     -0.51173100      0.34860400
C          -1.95498900     -0.62752100      0.17323800
C          -2.72727900     -1.80472000      0.52495100
C          -4.05412100     -1.92840300      0.33681100
H           2.07799100     -0.01475000      0.59911100
H           2.01570900      1.68972400     -0.15762500
H          -0.40811200      1.48574300     -0.47586500
H          -0.06603300     -1.35083800      0.79419400
H          -2.50590400      0.21214100     -0.27021700
H          -2.16834400     -2.63583200      0.97313000
H          -4.64233500     -1.11917300     -0.10725800
H          -4.58977600     -2.83699600      0.61994300
