14
b3lypvdz=-233.23471595961 
C           1.45038000      0.88508700     -0.13292200
C           0.03133300      0.85691200      0.30030000
C          -0.56687500     -0.49726600      0.39123200
C          -1.84297800     -0.81049700      0.12835400
C           2.22667600      1.96259800     -0.31416200
C          -0.67677100      1.96217800      0.61092600
H           1.88897400     -0.09931100     -0.33259000
H           0.12273100     -1.30131700      0.67747400
H          -2.56046400     -0.05763200     -0.20971800
H          -2.20761000     -1.83480700      0.23898600
H           1.86541400      2.98080500     -0.14361200
H           3.26036600      1.85462400     -0.64987800
H          -0.24908100      2.96305600      0.51992200
H          -1.70029400      1.88796900      0.98178700
