13
b3lypvdz=-249.2805622862 
N          -0.14925300     -1.72493400      0.54598300
C           1.64977900      0.69718500      0.26282400
C           0.32786700      0.74398500      0.51911600
C          -0.49304300     -0.50271000      0.65879900
C          -0.41394000      2.00730700      0.70774600
C          -0.12772600      3.19365400      0.15333500
H           0.85477100     -1.80613400      0.31986000
H           2.16994100     -0.25192300      0.10789500
H           2.25764700      1.60255800      0.20858800
H          -1.55552300     -0.31850800      0.89671900
H          -1.30056900      1.93284700      1.35025100
H          -0.73549300      4.07479400      0.37183500
H           0.70994200      3.32787900     -0.53775200
