11
b3lypvdz=-227.249759803571 
N           0.05934400     -1.51279300      0.59289900
N           3.41907100     -2.39434000      0.37858300
C          -0.75082200     -0.56237700      0.81434200
C           2.47056100     -1.55859200      0.23699000
C           1.35568100     -1.46079000      1.25651000
H           4.09260100     -2.29792800     -0.39476400
H          -0.52696900      0.29298300      1.48602600
H          -1.73417300     -0.57080500      0.32309400
H           2.38253900     -0.84847900     -0.61028200
H           1.45100900     -2.32154900      1.93789800
H           1.49145700     -0.52553100      1.84670400
