8
b3lypvdz=-133.871310398946 
C           2.30464400     -1.43133000      0.41658800
C           1.37787800     -1.60371600      1.58398600
N           3.14581500     -2.33114200      0.09190900
H           2.19434300     -0.47506800     -0.13706500
H           0.32599300     -1.51952700      1.25408200
H           1.53973400     -2.58551500      2.05377700
H           1.54241400     -0.80906700      2.33385100
H           3.67707800     -2.02833400     -0.73732700
