11
b3lypvdz=-227.272420007352 
N           2.51079000     -0.21778700     -0.29166000
N           3.32079700     -2.43670000      0.12483000
C           1.64317400      0.81494000      0.04592700
C           2.50790100     -1.46789800      0.30095900
C           1.66616300      2.05969600     -0.45215000
H           3.26784200     -0.00925800     -0.93712600
H           4.05587800     -2.18277300     -0.55256000
H           0.89963700      0.52107400      0.79340200
H           1.66986800     -1.59936300      1.00390600
H           0.93748900      2.79507200     -0.11254500
H           2.40376000      2.37659800     -1.19498300
