14
b3lypvdz=-320.670332602895 
N           2.15491500     -0.56045700     -0.44187800
N          -0.17554500     -1.41993900      1.55173100
N           4.20451800     -1.54710900     -1.20508900
C           1.31702900      0.53731700     -0.41800400
C           0.07725600      0.61368700      0.12611400
C          -0.63581900     -0.44771900      0.84531800
C           3.40778700     -0.56653500     -1.04485000
H           1.78221500     -1.45173900     -0.12222600
H           0.84834700     -1.33837700      1.64896900
H           3.80383900     -2.41921900     -0.82750500
H           1.73356400      1.40613700     -0.93604200
H          -0.47362900      1.54081800     -0.05138100
H          -1.73658600     -0.39619400      0.76618200
H           3.71081100      0.43102900     -1.39953900
