14
b3lypvdz=-266.557524913148 
N           2.23200400     -0.30542300     -0.30315100
N           3.36006200     -2.30274900      0.26290600
C           1.30663500      0.74035400     -0.25268800
C           0.22261600      0.95234400      0.51459700
C           2.38831800     -1.48220800      0.43942600
C           1.35891100     -1.80273300      1.49075100
H           2.96817400     -0.16801400     -0.98668300
H           3.99438200     -1.97383300     -0.48086300
H           1.56002600      1.50537800     -0.99416100
H          -0.13911800      0.27814100      1.28698200
H          -0.33877800      1.87346900      0.35297700
H           0.35620600     -1.89583300      1.04348600
H           1.64007000     -2.75235100      1.96087400
H           1.31599400     -1.01594100      2.26074800
