15
b3lypvdz=-304.622362828832 
N           2.33377200     -0.30414900     -0.50203900
N           3.43795200     -2.23963800      0.37935000
C           1.33018600      0.66926400     -0.47101100
C           0.03526100      0.53660100     -0.09680700
C          -0.69235000     -0.67565600      0.24384400
C           2.50167200     -1.37034500      0.37464000
C          -1.95637000     -0.68997300      0.70577900
H           3.12836700     -0.10746400     -1.10328200
H           4.09110500     -2.08329500     -0.40407300
H           1.67862000      1.65071900     -0.80680900
H          -0.54415800      1.46523100     -0.07932200
H          -0.19327800     -1.63480900      0.07137700
H           1.72571500     -1.41963300      1.14990700
H          -2.50596600      0.23735100      0.89470500
H          -2.47503000     -1.62820300      0.91294100
