13
b3lypvdz=-249.289225079344 
N          -0.10810500     -1.79557900      0.88897700
C           0.15314700      0.63180200      0.52962700
C          -0.57626500     -0.60569500      0.80058100
C          -0.46082300      1.83545100      0.48006600
C           1.43829800      3.40588300     -0.01884800
C           0.14418600      3.14563800      0.23251200
H           0.91308600     -1.78141800      0.73079600
H           1.23514300      0.54360700      0.36637000
H          -1.66465400     -0.49094100      0.95227100
H          -1.54365000      1.84547000      0.65583600
H           2.19560900      2.61811900     -0.06830800
H           1.78321900      4.42765600     -0.19101500
H          -0.55419000      3.98920700      0.26233600
