10
b3lypvdz=-155.885531488054 
C          -1.90196100     -0.78111000      0.05841200
C          -0.46895500      1.90979200      0.68584800
C           0.07723500      0.72295300      0.38133200
C          -0.61771200     -0.57815600      0.38746400
H          -2.54226700      0.03987000     -0.27816400
H          -2.34790700     -1.77847800      0.10230100
H           0.11651300      2.83130300      0.62945600
H          -1.50815300      1.99391800      1.01835300
H           1.14007700      0.69121200      0.10959000
H          -0.00447000     -1.44530600      0.66460800
