12
b3lypvdz=-211.206855385158 
N          -0.00898300     -1.65123700      1.08874600
C           1.46340200      0.96475500     -0.07577600
C           0.19622700      0.73295600      0.29739900
C          -0.44558400     -0.58217600      0.54000400
C           1.33681700     -1.73493600      1.62902700
H           2.17731700      0.15477800     -0.24137600
H           1.81862000      1.98039200     -0.26897700
H          -0.48912200      1.58697500      0.37998300
H          -1.49561700     -0.62736700      0.20057000
H           1.99470900     -2.22389400      0.88681700
H           1.31822400     -2.39382400      2.51165900
H           1.79599100     -0.76652200      1.90292400
