13
b3lypvdz=-708.844753076715 
Cl         -0.82302400      4.50452300      0.85458700
N          -0.09316900     -1.78316400      0.87122900
C           0.16251400      0.65801500      0.62761800
C          -0.57393600     -0.60558900      0.72780200
C          -0.46749600      1.84148900      0.47023100
C           1.41637000      3.38534500     -0.14485400
C           0.18660000      3.14549600      0.33184500
H           0.93858200     -1.74112400      0.91168600
H           1.25630400      0.60707900      0.69982700
H          -1.67348000     -0.51961600      0.67141900
H          -1.56262600      1.85574400      0.45578700
H           2.03134200      2.56145400     -0.51179900
H           1.82371900      4.39564700     -0.19577900
