16
b3lypvdz=-288.57563798032 
N           2.30975200     -0.26373100     -0.27216900
C           1.40033000      0.78590700     -0.08833400
C           0.06152900      0.61407500      0.12512600
C          -0.65702700     -0.64096500      0.05766900
C          -1.94948500     -0.81764700      0.40039900
C           2.05181900      2.10707500     -0.01980700
C           1.51096300      3.28744600     -0.35496800
H           1.89275100     -1.17527900     -0.43386800
H           3.03842100     -0.07286400     -0.95624400
H          -0.51181200      1.49400000      0.42662100
H          -0.11166300     -1.52147000     -0.30758000
H          -2.55617800      0.01177200      0.77678400
H          -2.43465100     -1.79228100      0.31521600
H           3.08984000      2.08031200      0.33448100
H           0.49503200      3.36997000     -0.75033800
H           2.08207900      4.21208000     -0.23998900
