17
b3lypvdz=-326.634115449827 
N          -0.09196300     -1.63540500      0.98062800
C           0.12627900      0.70783400      0.42518800
C          -0.63058600     -0.57265200      0.49094300
C          -2.04563400     -0.67542900     -0.00202100
C          -0.35346800      1.94976200      0.57939600
C          -2.51403700      0.17664400     -0.93701600
C          -2.83260200     -1.80865400      0.54582600
C          -4.09053400     -2.13941200      0.22345300
H           0.87798600     -1.44350800      1.26589000
H           1.21109500      0.57255100      0.32801400
H           0.32210900      2.80848900      0.59650200
H          -1.41871000      2.14923600      0.71562400
H          -3.52468000      0.07724100     -1.33686000
H          -1.89313000      0.96972400     -1.35118900
H          -2.28796100     -2.41143400      1.27517200
H          -4.68361800     -1.58935300     -0.51291500
H          -4.57824500     -2.99293300      0.69996600
