6
hf631gd=-152.030456515 
     O     -0.04429600      1.46781600      0.00000100
     H      0.82835200      1.83494500     -0.00001900
     H      0.07776800      0.52384900     -0.00000200
     O      0.06515200     -1.50158000     -0.00000100
     H     -0.43244500     -1.78371700      0.75643600
     H     -0.43247900     -1.78371700     -0.75641700
