27
hf631gd=-684.234838366 
     O     -2.55774500      1.40759500     -0.08805700
     H     -2.64852200      0.45019100     -0.00511300
     H     -3.43587500      1.76260500     -0.11965400
     O      1.54503000     -2.11107700      0.14113700
     H      0.97993800     -1.92863900      0.88831800
     H      0.96384500     -2.10522700     -0.61599500
     O     -0.36945700      1.56584700      1.82926300
     H     -1.15853400      1.71724300      1.31407000
     H      0.35280400      1.85480700      1.27577600
     O      3.40672900     -0.05814300     -0.06724200
     H      4.06726900     -0.21064100      0.59424200
     H      2.82379800     -0.82493100     -0.04118200
     O     -0.37542700     -1.18666200      2.15208000
     H     -0.40635600     -1.40788500      3.07315600
     H     -0.32141700     -0.22421300      2.10398500
     O     -0.39890200      1.16679800     -2.03310600
     H      0.33629100      1.52488900     -1.54022600
     H     -1.17787700      1.42398400     -1.54569100
     O     -0.45991400     -1.60210500     -1.92654600
     H     -0.38583700     -0.64607700     -2.03560300
     H     -0.49156700     -1.96990500     -2.79949900
     O      1.67736400      2.10073000     -0.18543600
     H      2.15875600      2.89691300     -0.36649200
     H      2.33107700      1.39472800     -0.12652900
     O     -2.48920400     -1.34741900      0.14837800
     H     -1.96867700     -1.63087500     -0.60010900
     H     -1.92444800     -1.48256500      0.90609700
