15
hf631gd=-380.115035452 
     O      1.05742000     -2.14145600     -0.01172100
     H      0.10963500     -2.00296700     -0.07782900
     H      1.17171000     -2.81832300      0.64076300
     O     -2.12166300      1.10568600      0.13194600
     H     -1.28515100      1.56153100      0.01098500
     H     -2.50774700      1.48195500      0.91088800
     O      2.37802500      0.36121200      0.00616800
     H      2.99391400      0.33109600      0.72497800
     H      1.98833900     -0.51440300     -0.04521900
     O     -1.71977500     -1.67239300     -0.07463200
     H     -1.89382000     -0.73716300      0.05605900
     H     -2.19410100     -1.91097000     -0.85933100
     O      0.39142300      2.35438100     -0.09173600
     H      1.08860000      1.69966600     -0.00743200
     H      0.58975500      2.83564800     -0.88336200
