30
hf631gd=-760.264545321 
     O     -0.69690200     -2.38966700      1.41568200
     H     -1.21158100     -1.59213400      1.60107500
     H     -1.02065100     -3.05926900      2.00323600
     O     -2.19405800     -0.10582100      1.69916100
     H     -2.55158500      0.04577700      0.82943600
     H     -1.66201300      0.67062800      1.88619900
     O     -1.01450800     -2.07731400     -1.45782600
     H     -0.11740700     -1.89534500     -1.73171900
     H     -0.94213100     -2.40280300     -0.56291600
     O      2.06466900     -1.56789600      1.06613600
     H      1.21198500     -1.91757400      1.31805100
     H      2.10439600     -1.66637700      0.11800000
     O     -0.49486500      2.17310300      1.74608500
     H     -0.61853500      2.48838500      0.85601900
     H      0.41856200      1.90047700      1.78796400
     O      1.74941100     -1.29208000     -1.83792400
     H      1.77685600     -0.32796600     -1.79219100
     H      2.34546100     -1.54503300     -2.53008300
     O      2.23608100      1.16982000      1.39657900
     H      2.98272800      1.38767800      1.93823000
     H      2.18941200      0.20582900      1.37107700
     O     -0.89551500      2.46441300     -1.19146900
     H     -1.50926700      1.73227900     -1.28197500
     H     -1.27704500      3.19891800     -1.65316600
     O     -2.56949000      0.17594400     -1.25032600
     H     -2.02403300     -0.61182100     -1.38489600
     H     -3.36911800      0.02981300     -1.73809200
     O      1.83440500      1.44376600     -1.46864300
     H      2.11224200      1.52542000     -0.55858100
     H      0.97461600      1.85625100     -1.50641900
