24
hf631gd=-608.20944723 
     O      0.00000000      2.09786900      1.40284500
     H      0.00000000      2.97741800      1.75593900
     H      0.00000000      2.18546300      0.44180800
     O      2.09786900      0.00000000     -1.40284500
     H      2.97741800      0.00000000     -1.75593900
     H      2.18546300      0.00000000     -0.44180800
     O      2.02596000      0.00000000      1.36718400
     H      1.48786700      0.75837000      1.58279600
     H      1.48786700     -0.75837000      1.58279600
     O      0.00000000     -2.09786900      1.40284500
     H      0.00000000     -2.97741800      1.75593900
     H      0.00000000     -2.18546300      0.44180800
     O     -2.09786900      0.00000000     -1.40284500
     H     -2.97741800      0.00000000     -1.75593900
     H     -2.18546300      0.00000000     -0.44180800
     O     -2.02596000      0.00000000      1.36718400
     H     -1.48786700     -0.75837000      1.58279600
     H     -1.48786700      0.75837000      1.58279600
     O      0.00000000     -2.02596000     -1.36718400
     H     -0.75837000     -1.48786700     -1.58279600
     H      0.75837000     -1.48786700     -1.58279600
     O      0.00000000      2.02596000     -1.36718400
     H     -0.75837000      1.48786700     -1.58279600
     H      0.75837000      1.48786700     -1.58279600
