86
b3lypvdz=-1101.1830548
C      -8.37140320    -15.16946432      0.00000000
C      -7.03083716    -14.43048788      0.00000000
C      -7.17715409    -12.90463375      0.00000000
C      -5.84020179    -12.15568657      0.00000000
C      -5.98754839    -10.63000735      0.00000000
C      -4.65096356     -9.88000144      0.00000000
C      -4.80033537     -8.35446710      0.00000000
C      -3.46488763     -7.60246241      0.00000000
C      -3.61653774     -6.07711656      0.00000000
C      -2.28218681     -5.32321076      0.00000000
C      -2.43578219     -3.79803743      0.00000000
C      -1.10225972     -3.04270104      0.00000000
C      -1.25712833     -1.51764349      0.00000000
C       0.07595536     -0.76155137      0.00000000
C      -0.07934706      0.76346670      0.00000000
C       1.25374123      1.51954972      0.00000000
C       1.09889368      3.04461036      0.00000000
C       2.43242861      3.79992208      0.00000000
C       2.27886958      5.32510079      0.00000000
C       3.61323734      6.07897314      0.00000000
C       3.46162979      7.60432534      0.00000000
C       4.79709438      8.35629613      0.00000000
C       4.64776230      9.88183641      0.00000000
C       5.98436030     10.63181476      0.00000000
C       5.83704332     12.15749866      0.00000000
C       7.17400322     12.90642868      0.00000000
C       7.02770344     14.43228581      0.00000000
C       8.36827399     15.17125119      0.00000000
H      -8.23160506    -16.26294520      0.00000000
H      -8.97199185    -14.91011890      0.88916621
H      -8.97199185    -14.91011890     -0.88916621
H      -6.43914909    -14.73869582     -0.88238561
H      -6.43914909    -14.73869582      0.88238561
H      -7.76950869    -12.59561716      0.88276743
H      -7.76950869    -12.59561716     -0.88276743
H      -5.24823357    -12.46511499      0.88264820
H      -5.24823357    -12.46511499     -0.88264820
H      -6.57957145    -10.32066312     -0.88258895
H      -6.57957145    -10.32066312      0.88258895
H      -4.05872605    -10.18883483     -0.88262316
H      -4.05872605    -10.18883483      0.88262316
H      -5.39285993     -8.04601820     -0.88256260
H      -5.39285993     -8.04601820      0.88256260
H      -2.87219540     -7.91041952      0.88261998
H      -2.87219540     -7.91041952     -0.88261998
H      -4.20951785     -5.76954253     -0.88256334
H      -4.20951785     -5.76954253      0.88256334
H      -1.68907214     -5.63037298      0.88261381
H      -1.68907214     -5.63037298     -0.88261381
H      -3.02911520     -3.49116458     -0.88257128
H      -3.02911520     -3.49116458      0.88257128
H      -0.50884008     -3.34930511      0.88260442
H      -0.50884008     -3.34930511     -0.88260442
H      -1.85066337     -1.21119231      0.88258209
H      -1.85066337     -1.21119231     -0.88258209
H       0.66951983     -1.06791124     -0.88259321
H       0.66951983     -1.06791124      0.88259321
H      -0.67290987      1.06982855     -0.88259379
H      -0.67290987      1.06982855      0.88259379
H       1.84727346      1.21309140     -0.88258153
H       1.84727346      1.21309140      0.88258153
H       0.50547971      3.35122497      0.88260489
H       0.50547971      3.35122497     -0.88260489
H       3.02575514      3.49303496     -0.88257087
H       3.02575514      3.49303496      0.88257087
H       1.68576306      5.63227923     -0.88261407
H       1.68576306      5.63227923      0.88261407
H       4.20620902      5.77138137     -0.88256315
H       4.20620902      5.77138137      0.88256315
H       2.86894609      7.91230029      0.88261996
H       2.86894609      7.91230029     -0.88261996
H       5.38961055      8.04782979     -0.88256253
H       5.38961055      8.04782979      0.88256253
H       4.05553198     10.19068575     -0.88262287
H       4.05553198     10.19068575      0.88262287
H       6.57637691     10.32245711     -0.88258901
H       6.57637691     10.32245711      0.88258901
H       5.24507999     12.46693867      0.88264791
H       5.24507999     12.46693867     -0.88264791
H       7.76635457     12.59740466      0.88276776
H       7.76635457     12.59740466     -0.88276776
H       6.43601761     14.74050002     -0.88238543
H       6.43601761     14.74050002      0.88238543
H       8.22848558     16.26473342      0.00000000
H       8.96886079     14.91190117      0.88916636
H       8.96886079     14.91190117     -0.88916636
