8
b3lypvdz=-79.764086437255 
C          -8.37202200    -15.16995700      0.00000000
C          -7.03017800    -14.43004300      0.00000000
H          -8.22590400    -16.26352900     -0.00000000
H          -8.97096100    -14.91267400      0.89052900
H          -8.97096100    -14.91267400     -0.89052900
H          -7.17629600    -13.33647100     -0.00000000
H          -6.43123900    -14.68732600     -0.89052900
H          -6.43123900    -14.68732600      0.89052900
