11
b3lypvdz=-119.049675692259 
C           7.17151200     12.91049400      0.00000100
C           7.02006600     14.43553900      0.00000200
C           8.36475000     15.17134700      0.00001600
H           6.18999100     12.40823100     -0.00001900
H           7.72498800     12.56535500      0.89099100
H           7.72504000     12.56536500     -0.89095900
H           6.43305600     14.74509800     -0.88443900
H           6.43304100     14.74509600      0.88443300
H           8.22411200     16.26541100      0.00001700
H           8.96225400     14.90888500      0.89106400
H           8.96228900     14.90887700     -0.89100700
